1G9V_ligand_con0
     RDKit          3D

 47 48  0  0  0  0  0  0  0  0999 V2000
    4.3293    3.8162   -2.1334 C   0  0  0  0  0  0  0  0  0  0  0  0
    3.6898    2.7124   -2.7030 C   0  0  0  0  0  0  0  0  0  0  0  0
    4.0313    1.4181   -2.2980 C   0  0  0  0  0  0  0  0  0  0  0  0
    3.3113    0.2193   -2.8655 C   0  0  0  0  0  0  0  0  0  0  0  0
    1.8579    0.0719   -2.4226 C   0  0  0  0  0  0  0  0  0  0  0  0
    1.0206   -0.3683   -3.2092 O   0  0  0  0  0  0  0  0  0  0  0  0
    1.6332    0.3965   -1.0956 N   0  0  0  0  0  0  0  0  0  0  0  0
    0.4286    0.3116   -0.3689 C   0  0  0  0  0  0  0  0  0  0  0  0
   -0.7666   -0.1878   -0.8878 C   0  0  0  0  0  0  0  0  0  0  0  0
   -1.9267   -0.2414   -0.0986 C   0  0  0  0  0  0  0  0  0  0  0  0
   -3.1925   -0.8177   -0.6615 C   0  0  0  0  0  0  0  0  0  0  0  0
   -1.8743    0.1925    1.2311 C   0  0  0  0  0  0  0  0  0  0  0  0
   -0.6896    0.7101    1.7645 C   0  0  0  0  0  0  0  0  0  0  0  0
   -0.6269    1.1549    3.1956 C   0  0  0  0  0  0  0  0  0  0  0  0
    0.4575    0.7554    0.9601 C   0  0  0  0  0  0  0  0  0  0  0  0
    5.0309    1.2552   -1.3308 C   0  0  0  0  0  0  0  0  0  0  0  0
    5.6607    2.3668   -0.7597 C   0  0  0  0  0  0  0  0  0  0  0  0
    5.3055    3.6546   -1.1459 C   0  0  0  0  0  0  0  0  0  0  0  0
    5.8277    4.8232   -0.6761 O   0  0  0  0  0  0  0  0  0  0  0  0
    6.5287    4.8860    0.5955 C   0  0  0  0  0  0  0  0  0  0  0  0
    7.9064    4.1421    0.5780 C   0  0  0  0  0  0  0  0  0  0  0  0
    8.7049    4.4351   -0.3590 O   0  0  0  0  0  0  0  0  0  0  0  0
    8.0826    3.3127    1.5234 O   0  0  0  0  0  1  0  0  0  0  0  0
    6.9251    6.3650    0.7520 C   0  0  0  0  0  0  0  0  0  0  0  0
    5.5931    4.5271    1.7546 C   0  0  0  0  0  0  0  0  0  0  0  0
    4.0630    4.8203   -2.4538 H   0  0  0  0  0  0  0  0  0  0  0  0
    2.9251    2.8756   -3.4586 H   0  0  0  0  0  0  0  0  0  0  0  0
    3.8321   -0.7064   -2.5925 H   0  0  0  0  0  0  0  0  0  0  0  0
    3.3353    0.2844   -3.9603 H   0  0  0  0  0  0  0  0  0  0  0  0
    2.4225    0.7811   -0.5866 H   0  0  0  0  0  0  0  0  0  0  0  0
   -0.8227   -0.5487   -1.9100 H   0  0  0  0  0  0  0  0  0  0  0  0
   -3.2782   -0.6003   -1.7314 H   0  0  0  0  0  0  0  0  0  0  0  0
   -4.0714   -0.3852   -0.1719 H   0  0  0  0  0  0  0  0  0  0  0  0
   -3.2061   -1.9024   -0.5173 H   0  0  0  0  0  0  0  0  0  0  0  0
   -2.7640    0.1296    1.8540 H   0  0  0  0  0  0  0  0  0  0  0  0
   -1.6059    1.5037    3.5409 H   0  0  0  0  0  0  0  0  0  0  0  0
    0.0742    1.9877    3.3147 H   0  0  0  0  0  0  0  0  0  0  0  0
   -0.3039    0.3248    3.8313 H   0  0  0  0  0  0  0  0  0  0  0  0
    1.3817    1.1448    1.3835 H   0  0  0  0  0  0  0  0  0  0  0  0
    5.3405    0.2643   -1.0053 H   0  0  0  0  0  0  0  0  0  0  0  0
    6.4375    2.1850   -0.0240 H   0  0  0  0  0  0  0  0  0  0  0  0
    7.5218    6.5355    1.6551 H   0  0  0  0  0  0  0  0  0  0  0  0
    6.0331    7.0008    0.8042 H   0  0  0  0  0  0  0  0  0  0  0  0
    7.4977    6.7245   -0.1114 H   0  0  0  0  0  0  0  0  0  0  0  0
    6.0529    4.7481    2.7243 H   0  0  0  0  0  0  0  0  0  0  0  0
    5.3320    3.4645    1.7583 H   0  0  0  0  0  0  0  0  0  0  0  0
    4.6503    5.0813    1.6830 H   0  0  0  0  0  0  0  0  0  0  0  0
 26  1  1  0
  1  2  2  0
  2 27  1  0
  2  3  1  0
  3  4  1  0
  4 28  1  0
  4 29  1  0
  4  5  1  0
  5  6  2  0
  5  7  1  0
  7 30  1  0
  7  8  1  0
  8  9  2  0
  9 31  1  0
  9 10  1  0
 10 11  1  0
 11 32  1  0
 11 33  1  0
 11 34  1  0
 10 12  2  0
 12 35  1  0
 12 13  1  0
 13 14  1  0
 14 36  1  0
 14 37  1  0
 14 38  1  0
  8 15  1  0
 13 15  2  0
 15 39  1  0
  3 16  2  0
 16 40  1  0
 16 17  1  0
 17 41  1  0
  1 18  1  0
 17 18  2  0
 18 19  1  0
 19 20  1  0
 20 21  1  0
 21 22  2  0
 21 23  1  0
 20 24  1  0
 24 42  1  0
 24 43  1  0
 24 44  1  0
 20 25  1  0
 25 45  1  0
 25 46  1  0
 25 47  1  0
M  CHG  1  23  -1
M  END
>  <conformer_energy>  (1) 
102.01000000000001

>  <ligand_smiles>  (1) 
Cc1cc(C)cc(NC(=O)Cc2ccc(OC(C)(C)C(=O)[O-])cc2)c1

>  <ligand_conf_name>  (1) 
MOL_0_isomer_0_conf_0

>  <ligand_molecule_name>  (1) 
MOL_0_isomer_0

>  <SMILES>  (1) 
Cc1cc(C)cc(NC(=O)Cc2ccc(OC(C)(C)C(=O)[O-])cc2)c1

$$$$
1G9V_ligand_con1
     RDKit          3D

 47 48  0  0  0  0  0  0  0  0999 V2000
    4.4801   -3.6785   -2.3649 C   0  0  0  0  0  0  0  0  0  0  0  0
    3.7984   -2.6868   -3.0697 C   0  0  0  0  0  0  0  0  0  0  0  0
    4.0813   -1.3375   -2.8256 C   0  0  0  0  0  0  0  0  0  0  0  0
    3.1829   -0.2612   -3.3819 C   0  0  0  0  0  0  0  0  0  0  0  0
    1.8357   -0.0980   -2.6692 C   0  0  0  0  0  0  0  0  0  0  0  0
    0.9236    0.4960   -3.2500 O   0  0  0  0  0  0  0  0  0  0  0  0
    1.7761   -0.5998   -1.3825 N   0  0  0  0  0  0  0  0  0  0  0  0
    0.6933   -0.5816   -0.4805 C   0  0  0  0  0  0  0  0  0  0  0  0
   -0.5489   -0.0087   -0.7530 C   0  0  0  0  0  0  0  0  0  0  0  0
   -1.5779   -0.0394    0.2022 C   0  0  0  0  0  0  0  0  0  0  0  0
   -2.8991    0.6038   -0.0989 C   0  0  0  0  0  0  0  0  0  0  0  0
   -1.3420   -0.6308    1.4495 C   0  0  0  0  0  0  0  0  0  0  0  0
   -0.1079   -1.2246    1.7329 C   0  0  0  0  0  0  0  0  0  0  0  0
    0.1632   -1.8452    3.0706 C   0  0  0  0  0  0  0  0  0  0  0  0
    0.9043   -1.1885    0.7652 C   0  0  0  0  0  0  0  0  0  0  0  0
    5.1106   -1.0031   -1.9349 C   0  0  0  0  0  0  0  0  0  0  0  0
    5.7894   -2.0016   -1.2349 C   0  0  0  0  0  0  0  0  0  0  0  0
    5.4360   -3.3363   -1.4072 C   0  0  0  0  0  0  0  0  0  0  0  0
    5.9455   -4.3825   -0.6951 O   0  0  0  0  0  0  0  0  0  0  0  0
    6.1931   -4.2124    0.7354 C   0  0  0  0  0  0  0  0  0  0  0  0
    5.2163   -3.2121    1.4618 C   0  0  0  0  0  0  0  0  0  0  0  0
    5.7824   -2.2787    2.1100 O   0  0  0  0  0  0  0  0  0  0  0  0
    3.9733   -3.4244    1.3368 O   0  0  0  0  0  1  0  0  0  0  0  0
    5.8592   -5.5737    1.3680 C   0  0  0  0  0  0  0  0  0  0  0  0
    7.6845   -3.9409    0.9369 C   0  0  0  0  0  0  0  0  0  0  0  0
    4.2139   -4.7233   -2.5009 H   0  0  0  0  0  0  0  0  0  0  0  0
    2.9988   -2.9747   -3.7477 H   0  0  0  0  0  0  0  0  0  0  0  0
    2.9836   -0.4786   -4.4394 H   0  0  0  0  0  0  0  0  0  0  0  0
    3.6924    0.7099   -3.3488 H   0  0  0  0  0  0  0  0  0  0  0  0
    2.6016   -1.0757   -1.0213 H   0  0  0  0  0  0  0  0  0  0  0  0
   -0.7425    0.4692   -1.7080 H   0  0  0  0  0  0  0  0  0  0  0  0
   -3.1650    0.4687   -1.1520 H   0  0  0  0  0  0  0  0  0  0  0  0
   -2.8575    1.6755    0.1229 H   0  0  0  0  0  0  0  0  0  0  0  0
   -3.6999    0.1542    0.4965 H   0  0  0  0  0  0  0  0  0  0  0  0
   -2.1251   -0.6365    2.2035 H   0  0  0  0  0  0  0  0  0  0  0  0
   -0.7625   -2.2106    3.5274 H   0  0  0  0  0  0  0  0  0  0  0  0
    0.6183   -1.1073    3.7386 H   0  0  0  0  0  0  0  0  0  0  0  0
    0.8367   -2.7024    2.9747 H   0  0  0  0  0  0  0  0  0  0  0  0
    1.8684   -1.6479    0.9969 H   0  0  0  0  0  0  0  0  0  0  0  0
    5.3459    0.0358   -1.7160 H   0  0  0  0  0  0  0  0  0  0  0  0
    6.5356   -1.7046   -0.5057 H   0  0  0  0  0  0  0  0  0  0  0  0
    5.9867   -5.5611    2.4560 H   0  0  0  0  0  0  0  0  0  0  0  0
    6.5009   -6.3610    0.9543 H   0  0  0  0  0  0  0  0  0  0  0  0
    4.8284   -5.8796    1.1470 H   0  0  0  0  0  0  0  0  0  0  0  0
    7.9658   -3.9854    1.9942 H   0  0  0  0  0  0  0  0  0  0  0  0
    7.9757   -2.9550    0.5601 H   0  0  0  0  0  0  0  0  0  0  0  0
    8.2905   -4.6691    0.3864 H   0  0  0  0  0  0  0  0  0  0  0  0
 26  1  1  0
  1  2  2  0
  2 27  1  0
  2  3  1  0
  3  4  1  0
  4 28  1  0
  4 29  1  0
  4  5  1  0
  5  6  2  0
  5  7  1  0
  7 30  1  0
  7  8  1  0
  8  9  2  0
  9 31  1  0
  9 10  1  0
 10 11  1  0
 11 32  1  0
 11 33  1  0
 11 34  1  0
 10 12  2  0
 12 35  1  0
 12 13  1  0
 13 14  1  0
 14 36  1  0
 14 37  1  0
 14 38  1  0
  8 15  1  0
 13 15  2  0
 15 39  1  0
  3 16  2  0
 16 40  1  0
 16 17  1  0
 17 41  1  0
  1 18  1  0
 17 18  2  0
 18 19  1  0
 19 20  1  0
 20 21  1  0
 21 22  2  0
 21 23  1  0
 20 24  1  0
 24 42  1  0
 24 43  1  0
 24 44  1  0
 20 25  1  0
 25 45  1  0
 25 46  1  0
 25 47  1  0
M  CHG  1  23  -1
M  END
>  <conformer_energy>  (1) 
102.01000000000001

>  <ligand_smiles>  (1) 
Cc1cc(C)cc(NC(=O)Cc2ccc(OC(C)(C)C(=O)[O-])cc2)c1

>  <ligand_conf_name>  (1) 
MOL_0_isomer_0_conf_0

>  <ligand_molecule_name>  (1) 
MOL_0_isomer_0

>  <SMILES>  (1) 
Cc1cc(C)cc(NC(=O)Cc2ccc(OC(C)(C)C(=O)[O-])cc2)c1

$$$$
1G9V_ligand_con2
     RDKit          3D

 47 48  0  0  0  0  0  0  0  0999 V2000
    4.3402    3.8168   -2.1184 C   0  0  0  0  0  0  0  0  0  0  0  0
    3.7030    2.7145   -2.6936 C   0  0  0  0  0  0  0  0  0  0  0  0
    4.0420    1.4191   -2.2899 C   0  0  0  0  0  0  0  0  0  0  0  0
    3.3244    0.2216   -2.8632 C   0  0  0  0  0  0  0  0  0  0  0  0
    1.8685    0.0743   -2.4288 C   0  0  0  0  0  0  0  0  0  0  0  0
    1.0360   -0.3664   -3.2202 O   0  0  0  0  0  0  0  0  0  0  0  0
    1.6357    0.3995   -1.1034 N   0  0  0  0  0  0  0  0  0  0  0  0
    0.4263    0.3157   -0.3844 C   0  0  0  0  0  0  0  0  0  0  0  0
   -0.7660   -0.1832   -0.9106 C   0  0  0  0  0  0  0  0  0  0  0  0
   -1.9309   -0.2357   -0.1287 C   0  0  0  0  0  0  0  0  0  0  0  0
   -3.1934   -0.8117   -0.6991 C   0  0  0  0  0  0  0  0  0  0  0  0
   -1.8868    0.1992    1.2010 C   0  0  0  0  0  0  0  0  0  0  0  0
   -0.7052    0.7164    1.7416 C   0  0  0  0  0  0  0  0  0  0  0  0
   -0.6512    1.1626    3.1725 C   0  0  0  0  0  0  0  0  0  0  0  0
    0.4470    0.7602    0.9445 C   0  0  0  0  0  0  0  0  0  0  0  0
    5.0369    1.2536   -1.3183 C   0  0  0  0  0  0  0  0  0  0  0  0
    5.6652    2.3636   -0.7424 C   0  0  0  0  0  0  0  0  0  0  0  0
    5.3124    3.6525   -1.1272 C   0  0  0  0  0  0  0  0  0  0  0  0
    5.8331    4.8198   -0.6525 O   0  0  0  0  0  0  0  0  0  0  0  0
    6.5314    4.8788    0.6209 C   0  0  0  0  0  0  0  0  0  0  0  0
    7.9084    4.1334    0.6045 C   0  0  0  0  0  0  0  0  0  0  0  0
    8.0812    3.3008    1.5478 O   0  0  0  0  0  0  0  0  0  0  0  0
    8.7095    4.4282   -0.3296 O   0  0  0  0  0  1  0  0  0  0  0  0
    6.9292    6.3568    0.7821 C   0  0  0  0  0  0  0  0  0  0  0  0
    5.5920    4.5185    1.7765 C   0  0  0  0  0  0  0  0  0  0  0  0
    4.0759    4.8218   -2.4378 H   0  0  0  0  0  0  0  0  0  0  0  0
    2.9418    2.8798   -3.4522 H   0  0  0  0  0  0  0  0  0  0  0  0
    3.8429   -0.7048   -2.5878 H   0  0  0  0  0  0  0  0  0  0  0  0
    3.3545    0.2881   -3.9578 H   0  0  0  0  0  0  0  0  0  0  0  0
    2.4221    0.7834   -0.5892 H   0  0  0  0  0  0  0  0  0  0  0  0
   -0.8158   -0.5447   -1.9328 H   0  0  0  0  0  0  0  0  0  0  0  0
   -3.2729   -0.5939   -1.7694 H   0  0  0  0  0  0  0  0  0  0  0  0
   -4.0752   -0.3792   -0.2144 H   0  0  0  0  0  0  0  0  0  0  0  0
   -3.2080   -1.8966   -0.5552 H   0  0  0  0  0  0  0  0  0  0  0  0
   -2.7807    0.1374    1.8182 H   0  0  0  0  0  0  0  0  0  0  0  0
   -1.6329    1.5083    3.5130 H   0  0  0  0  0  0  0  0  0  0  0  0
    0.0464    1.9980    3.2939 H   0  0  0  0  0  0  0  0  0  0  0  0
   -0.3282    0.3344    3.8106 H   0  0  0  0  0  0  0  0  0  0  0  0
    1.3688    1.1494    1.3734 H   0  0  0  0  0  0  0  0  0  0  0  0
    5.3445    0.2619   -0.9935 H   0  0  0  0  0  0  0  0  0  0  0  0
    6.4390    2.1797   -0.0040 H   0  0  0  0  0  0  0  0  0  0  0  0
    7.5237    6.5245    1.6871 H   0  0  0  0  0  0  0  0  0  0  0  0
    6.0378    6.9936    0.8335 H   0  0  0  0  0  0  0  0  0  0  0  0
    7.5044    6.7177   -0.0790 H   0  0  0  0  0  0  0  0  0  0  0  0
    6.0492    4.7368    2.7480 H   0  0  0  0  0  0  0  0  0  0  0  0
    5.3297    3.4562    1.7770 H   0  0  0  0  0  0  0  0  0  0  0  0
    4.6501    5.0741    1.7032 H   0  0  0  0  0  0  0  0  0  0  0  0
 26  1  1  0
  1  2  2  0
  2 27  1  0
  2  3  1  0
  3  4  1  0
  4 28  1  0
  4 29  1  0
  4  5  1  0
  5  6  2  0
  5  7  1  0
  7 30  1  0
  7  8  1  0
  8  9  2  0
  9 31  1  0
  9 10  1  0
 10 11  1  0
 11 32  1  0
 11 33  1  0
 11 34  1  0
 10 12  2  0
 12 35  1  0
 12 13  1  0
 13 14  1  0
 14 36  1  0
 14 37  1  0
 14 38  1  0
  8 15  1  0
 13 15  2  0
 15 39  1  0
  3 16  2  0
 16 40  1  0
 16 17  1  0
 17 41  1  0
  1 18  1  0
 17 18  2  0
 18 19  1  0
 19 20  1  0
 20 21  1  0
 21 22  2  0
 21 23  1  0
 20 24  1  0
 24 42  1  0
 24 43  1  0
 24 44  1  0
 20 25  1  0
 25 45  1  0
 25 46  1  0
 25 47  1  0
M  CHG  1  23  -1
M  END
>  <conformer_energy>  (1) 
102.01000000000001

>  <ligand_smiles>  (1) 
Cc1cc(C)cc(NC(=O)Cc2ccc(OC(C)(C)C(=O)[O-])cc2)c1

>  <ligand_conf_name>  (1) 
MOL_0_isomer_0_conf_0

>  <ligand_molecule_name>  (1) 
MOL_0_isomer_0

>  <SMILES>  (1) 
Cc1cc(C)cc(NC(=O)Cc2ccc(OC(C)(C)C(=O)[O-])cc2)c1

$$$$
1G9V_ligand_con3
     RDKit          3D

 47 48  0  0  0  0  0  0  0  0999 V2000
    4.3667   -3.8628   -1.4096 C   0  0  0  0  0  0  0  0  0  0  0  0
    3.7999   -2.9537   -2.3094 C   0  0  0  0  0  0  0  0  0  0  0  0
    3.8288   -1.5776   -2.0503 C   0  0  0  0  0  0  0  0  0  0  0  0
    3.1543   -0.6071   -2.9901 C   0  0  0  0  0  0  0  0  0  0  0  0
    1.8683    0.0244   -2.4590 C   0  0  0  0  0  0  0  0  0  0  0  0
    1.5599    1.1629   -2.8101 O   0  0  0  0  0  0  0  0  0  0  0  0
    1.1088   -0.8076   -1.6554 N   0  0  0  0  0  0  0  0  0  0  0  0
   -0.1290   -0.5344   -1.0391 C   0  0  0  0  0  0  0  0  0  0  0  0
   -0.8258    0.6663   -1.1764 C   0  0  0  0  0  0  0  0  0  0  0  0
   -2.0506    0.8666   -0.5197 C   0  0  0  0  0  0  0  0  0  0  0  0
   -2.7502    2.1881   -0.6304 C   0  0  0  0  0  0  0  0  0  0  0  0
   -2.5698   -0.1482    0.2917 C   0  0  0  0  0  0  0  0  0  0  0  0
   -1.8936   -1.3649    0.4299 C   0  0  0  0  0  0  0  0  0  0  0  0
   -2.4323   -2.4373    1.3311 C   0  0  0  0  0  0  0  0  0  0  0  0
   -0.6701   -1.5439   -0.2305 C   0  0  0  0  0  0  0  0  0  0  0  0
    4.4565   -1.1242   -0.8860 C   0  0  0  0  0  0  0  0  0  0  0  0
    5.0264   -2.0387    0.0034 C   0  0  0  0  0  0  0  0  0  0  0  0
    4.9731   -3.4145   -0.2407 C   0  0  0  0  0  0  0  0  0  0  0  0
    5.5554   -4.1783    0.7268 O   0  0  0  0  0  0  0  0  0  0  0  0
    5.3087   -5.6074    0.8232 C   0  0  0  0  0  0  0  0  0  0  0  0
    5.8989   -6.4198   -0.3794 C   0  0  0  0  0  0  0  0  0  0  0  0
    7.1142   -6.2189   -0.6678 O   0  0  0  0  0  0  0  0  0  0  0  0
    5.0833   -7.2115   -0.9446 O   0  0  0  0  0  1  0  0  0  0  0  0
    6.1610   -6.0741    2.0175 C   0  0  0  0  0  0  0  0  0  0  0  0
    3.8403   -5.8853    1.1601 C   0  0  0  0  0  0  0  0  0  0  0  0
    4.3260   -4.9174   -1.6649 H   0  0  0  0  0  0  0  0  0  0  0  0
    3.3382   -3.3444   -3.2134 H   0  0  0  0  0  0  0  0  0  0  0  0
    2.9090   -1.1000   -3.9399 H   0  0  0  0  0  0  0  0  0  0  0  0
    3.8620    0.1983   -3.2235 H   0  0  0  0  0  0  0  0  0  0  0  0
    1.5010   -1.7216   -1.4540 H   0  0  0  0  0  0  0  0  0  0  0  0
   -0.4300    1.4752   -1.7829 H   0  0  0  0  0  0  0  0  0  0  0  0
   -2.6688    2.5846   -1.6475 H   0  0  0  0  0  0  0  0  0  0  0  0
   -2.3037    2.9022    0.0680 H   0  0  0  0  0  0  0  0  0  0  0  0
   -3.8163    2.0935   -0.4004 H   0  0  0  0  0  0  0  0  0  0  0  0
   -3.5036    0.0119    0.8262 H   0  0  0  0  0  0  0  0  0  0  0  0
   -3.5276   -2.4295    1.3356 H   0  0  0  0  0  0  0  0  0  0  0  0
   -2.0724   -2.2812    2.3519 H   0  0  0  0  0  0  0  0  0  0  0  0
   -2.1173   -3.4297    0.9920 H   0  0  0  0  0  0  0  0  0  0  0  0
   -0.1297   -2.4798   -0.0930 H   0  0  0  0  0  0  0  0  0  0  0  0
    4.5050   -0.0622   -0.6566 H   0  0  0  0  0  0  0  0  0  0  0  0
    5.5135   -1.6810    0.9066 H   0  0  0  0  0  0  0  0  0  0  0  0
    6.1087   -7.1604    2.1585 H   0  0  0  0  0  0  0  0  0  0  0  0
    5.8252   -5.5908    2.9431 H   0  0  0  0  0  0  0  0  0  0  0  0
    7.2136   -5.7921    1.8992 H   0  0  0  0  0  0  0  0  0  0  0  0
    3.6791   -6.9377    1.4163 H   0  0  0  0  0  0  0  0  0  0  0  0
    3.1752   -5.6545    0.3232 H   0  0  0  0  0  0  0  0  0  0  0  0
    3.5079   -5.2685    2.0015 H   0  0  0  0  0  0  0  0  0  0  0  0
 26  1  1  0
  1  2  2  0
  2 27  1  0
  2  3  1  0
  3  4  1  0
  4 28  1  0
  4 29  1  0
  4  5  1  0
  5  6  2  0
  5  7  1  0
  7 30  1  0
  7  8  1  0
  8  9  2  0
  9 31  1  0
  9 10  1  0
 10 11  1  0
 11 32  1  0
 11 33  1  0
 11 34  1  0
 10 12  2  0
 12 35  1  0
 12 13  1  0
 13 14  1  0
 14 36  1  0
 14 37  1  0
 14 38  1  0
  8 15  1  0
 13 15  2  0
 15 39  1  0
  3 16  2  0
 16 40  1  0
 16 17  1  0
 17 41  1  0
  1 18  1  0
 17 18  2  0
 18 19  1  0
 19 20  1  0
 20 21  1  0
 21 22  2  0
 21 23  1  0
 20 24  1  0
 24 42  1  0
 24 43  1  0
 24 44  1  0
 20 25  1  0
 25 45  1  0
 25 46  1  0
 25 47  1  0
M  CHG  1  23  -1
M  END
>  <conformer_energy>  (1) 
102.01000000000001

>  <ligand_smiles>  (1) 
Cc1cc(C)cc(NC(=O)Cc2ccc(OC(C)(C)C(=O)[O-])cc2)c1

>  <ligand_conf_name>  (1) 
MOL_0_isomer_0_conf_0

>  <ligand_molecule_name>  (1) 
MOL_0_isomer_0

>  <SMILES>  (1) 
Cc1cc(C)cc(NC(=O)Cc2ccc(OC(C)(C)C(=O)[O-])cc2)c1

$$$$
1G9V_ligand_con4
     RDKit          3D

 47 48  0  0  0  0  0  0  0  0999 V2000
    4.4118    3.8327   -1.9399 C   0  0  0  0  0  0  0  0  0  0  0  0
    3.9001    2.8045   -2.7297 C   0  0  0  0  0  0  0  0  0  0  0  0
    4.0129    1.4709   -2.3130 C   0  0  0  0  0  0  0  0  0  0  0  0
    3.2728    0.3838   -3.0497 C   0  0  0  0  0  0  0  0  0  0  0  0
    1.9504   -0.0676   -2.4253 C   0  0  0  0  0  0  0  0  0  0  0  0
    1.4543   -1.1314   -2.8032 O   0  0  0  0  0  0  0  0  0  0  0  0
    1.3929    0.7961   -1.5020 N   0  0  0  0  0  0  0  0  0  0  0  0
    0.1716    0.6698   -0.8093 C   0  0  0  0  0  0  0  0  0  0  0  0
   -0.7321   -0.3778   -0.9898 C   0  0  0  0  0  0  0  0  0  0  0  0
   -1.9314   -0.4265   -0.2600 C   0  0  0  0  0  0  0  0  0  0  0  0
   -2.8689   -1.5844   -0.4289 C   0  0  0  0  0  0  0  0  0  0  0  0
   -2.2108    0.5812    0.6711 C   0  0  0  0  0  0  0  0  0  0  0  0
   -1.3234    1.6464    0.8540 C   0  0  0  0  0  0  0  0  0  0  0  0
   -1.5979    2.7139    1.8717 C   0  0  0  0  0  0  0  0  0  0  0  0
   -0.1315    1.6757    0.1178 C   0  0  0  0  0  0  0  0  0  0  0  0
    4.7065    1.1760   -1.1315 C   0  0  0  0  0  0  0  0  0  0  0  0
    5.2106    2.2086   -0.3426 C   0  0  0  0  0  0  0  0  0  0  0  0
    5.0140    3.5339   -0.7217 C   0  0  0  0  0  0  0  0  0  0  0  0
    5.4528    4.4914    0.1453 O   0  0  0  0  0  0  0  0  0  0  0  0
    4.4589    5.4522    0.6323 C   0  0  0  0  0  0  0  0  0  0  0  0
    2.9531    5.0130    0.4635 C   0  0  0  0  0  0  0  0  0  0  0  0
    2.5554    4.0382    1.1698 O   0  0  0  0  0  0  0  0  0  0  0  0
    2.2753    5.6930   -0.3663 O   0  0  0  0  0  1  0  0  0  0  0  0
    4.7057    5.5619    2.1435 C   0  0  0  0  0  0  0  0  0  0  0  0
    4.7704    6.8045   -0.0141 C   0  0  0  0  0  0  0  0  0  0  0  0
    4.2707    4.8632   -2.2485 H   0  0  0  0  0  0  0  0  0  0  0  0
    3.3559    3.0634   -3.6345 H   0  0  0  0  0  0  0  0  0  0  0  0
    3.9261   -0.4935   -3.1297 H   0  0  0  0  0  0  0  0  0  0  0  0
    3.0539    0.7082   -4.0745 H   0  0  0  0  0  0  0  0  0  0  0  0
    1.9229    1.6297   -1.2473 H   0  0  0  0  0  0  0  0  0  0  0  0
   -0.5245   -1.1754   -1.6951 H   0  0  0  0  0  0  0  0  0  0  0  0
   -2.8599   -1.9462   -1.4618 H   0  0  0  0  0  0  0  0  0  0  0  0
   -3.8987   -1.2922   -0.1980 H   0  0  0  0  0  0  0  0  0  0  0  0
   -2.5755   -2.4016    0.2372 H   0  0  0  0  0  0  0  0  0  0  0  0
   -3.1246    0.5377    1.2583 H   0  0  0  0  0  0  0  0  0  0  0  0
   -2.6755    2.8691    1.9923 H   0  0  0  0  0  0  0  0  0  0  0  0
   -1.1649    3.6720    1.5657 H   0  0  0  0  0  0  0  0  0  0  0  0
   -1.1731    2.4273    2.8379 H   0  0  0  0  0  0  0  0  0  0  0  0
    0.5696    2.4969    0.2855 H   0  0  0  0  0  0  0  0  0  0  0  0
    4.8008    0.1507   -0.7828 H   0  0  0  0  0  0  0  0  0  0  0  0
    5.6968    1.9906    0.6032 H   0  0  0  0  0  0  0  0  0  0  0  0
    4.0041    6.2549    2.6199 H   0  0  0  0  0  0  0  0  0  0  0  0
    5.7259    5.9079    2.3477 H   0  0  0  0  0  0  0  0  0  0  0  0
    4.6147    4.5861    2.6329 H   0  0  0  0  0  0  0  0  0  0  0  0
    4.1463    7.6026    0.4019 H   0  0  0  0  0  0  0  0  0  0  0  0
    4.6053    6.7804   -1.0958 H   0  0  0  0  0  0  0  0  0  0  0  0
    5.8244    7.0748    0.1264 H   0  0  0  0  0  0  0  0  0  0  0  0
 26  1  1  0
  1  2  2  0
  2 27  1  0
  2  3  1  0
  3  4  1  0
  4 28  1  0
  4 29  1  0
  4  5  1  0
  5  6  2  0
  5  7  1  0
  7 30  1  0
  7  8  1  0
  8  9  2  0
  9 31  1  0
  9 10  1  0
 10 11  1  0
 11 32  1  0
 11 33  1  0
 11 34  1  0
 10 12  2  0
 12 35  1  0
 12 13  1  0
 13 14  1  0
 14 36  1  0
 14 37  1  0
 14 38  1  0
  8 15  1  0
 13 15  2  0
 15 39  1  0
  3 16  2  0
 16 40  1  0
 16 17  1  0
 17 41  1  0
  1 18  1  0
 17 18  2  0
 18 19  1  0
 19 20  1  0
 20 21  1  0
 21 22  2  0
 21 23  1  0
 20 24  1  0
 24 42  1  0
 24 43  1  0
 24 44  1  0
 20 25  1  0
 25 45  1  0
 25 46  1  0
 25 47  1  0
M  CHG  1  23  -1
M  END
>  <conformer_energy>  (1) 
102.01000000000001

>  <ligand_smiles>  (1) 
Cc1cc(C)cc(NC(=O)Cc2ccc(OC(C)(C)C(=O)[O-])cc2)c1

>  <ligand_conf_name>  (1) 
MOL_0_isomer_0_conf_0

>  <ligand_molecule_name>  (1) 
MOL_0_isomer_0

>  <SMILES>  (1) 
Cc1cc(C)cc(NC(=O)Cc2ccc(OC(C)(C)C(=O)[O-])cc2)c1

$$$$
1G9V_ligand_con5
     RDKit          3D

 47 48  0  0  0  0  0  0  0  0999 V2000
    4.3737   -3.8595   -1.3899 C   0  0  0  0  0  0  0  0  0  0  0  0
    3.8205   -2.9453   -2.2942 C   0  0  0  0  0  0  0  0  0  0  0  0
    3.8533   -1.5702   -2.0308 C   0  0  0  0  0  0  0  0  0  0  0  0
    3.1908   -0.5945   -2.9730 C   0  0  0  0  0  0  0  0  0  0  0  0
    1.8928    0.0282   -2.4632 C   0  0  0  0  0  0  0  0  0  0  0  0
    1.5729    1.1561   -2.8376 O   0  0  0  0  0  0  0  0  0  0  0  0
    1.1330   -0.8007   -1.6576 N   0  0  0  0  0  0  0  0  0  0  0  0
   -0.1123   -0.5315   -1.0556 C   0  0  0  0  0  0  0  0  0  0  0  0
   -0.8169    0.6637   -1.2101 C   0  0  0  0  0  0  0  0  0  0  0  0
   -2.0505    0.8598   -0.5682 C   0  0  0  0  0  0  0  0  0  0  0  0
   -2.7709    2.1673   -0.7104 C   0  0  0  0  0  0  0  0  0  0  0  0
   -2.5674   -0.1508    0.2510 C   0  0  0  0  0  0  0  0  0  0  0  0
   -1.8803   -1.3596    0.4118 C   0  0  0  0  0  0  0  0  0  0  0  0
   -2.4144   -2.4227    1.3254 C   0  0  0  0  0  0  0  0  0  0  0  0
   -0.6525   -1.5369   -0.2410 C   0  0  0  0  0  0  0  0  0  0  0  0
    4.4714   -1.1234   -0.8584 C   0  0  0  0  0  0  0  0  0  0  0  0
    5.0263   -2.0426    0.0354 C   0  0  0  0  0  0  0  0  0  0  0  0
    4.9684   -3.4171   -0.2133 C   0  0  0  0  0  0  0  0  0  0  0  0
    5.5410   -4.1858    0.7557 O   0  0  0  0  0  0  0  0  0  0  0  0
    5.2856   -5.6130    0.8518 C   0  0  0  0  0  0  0  0  0  0  0  0
    5.8744   -6.4297   -0.3476 C   0  0  0  0  0  0  0  0  0  0  0  0
    5.0561   -7.2224   -0.9110 O   0  0  0  0  0  0  0  0  0  0  0  0
    7.0905   -6.2308   -0.6369 O   0  0  0  0  0  1  0  0  0  0  0  0
    6.1267   -6.0839    2.0513 C   0  0  0  0  0  0  0  0  0  0  0  0
    3.8125   -5.8808    1.1779 C   0  0  0  0  0  0  0  0  0  0  0  0
    4.3354   -4.9120   -1.6490 H   0  0  0  0  0  0  0  0  0  0  0  0
    3.3722   -3.3319   -3.2055 H   0  0  0  0  0  0  0  0  0  0  0  0
    2.9662   -1.0797   -3.9304 H   0  0  0  0  0  0  0  0  0  0  0  0
    3.8988    0.2156   -3.1875 H   0  0  0  0  0  0  0  0  0  0  0  0
    1.5263   -1.7139   -1.4516 H   0  0  0  0  0  0  0  0  0  0  0  0
   -0.4249    1.4672   -1.8234 H   0  0  0  0  0  0  0  0  0  0  0  0
   -2.6985    2.5416   -1.7375 H   0  0  0  0  0  0  0  0  0  0  0  0
   -2.3441    2.9088   -0.0283 H   0  0  0  0  0  0  0  0  0  0  0  0
   -3.8356    2.0529   -0.4827 H   0  0  0  0  0  0  0  0  0  0  0  0
   -3.5080    0.0077    0.7738 H   0  0  0  0  0  0  0  0  0  0  0  0
   -3.5092   -2.4038    1.3518 H   0  0  0  0  0  0  0  0  0  0  0  0
   -2.0350   -2.2687    2.3397 H   0  0  0  0  0  0  0  0  0  0  0  0
   -2.1169   -3.4181    0.9823 H   0  0  0  0  0  0  0  0  0  0  0  0
   -0.1101   -2.4699   -0.0965 H   0  0  0  0  0  0  0  0  0  0  0  0
    4.5220   -0.0629   -0.6254 H   0  0  0  0  0  0  0  0  0  0  0  0
    5.5046   -1.6895    0.9441 H   0  0  0  0  0  0  0  0  0  0  0  0
    6.0614   -7.1692    2.1949 H   0  0  0  0  0  0  0  0  0  0  0  0
    5.7885   -5.5935    2.9725 H   0  0  0  0  0  0  0  0  0  0  0  0
    7.1830   -5.8132    1.9396 H   0  0  0  0  0  0  0  0  0  0  0  0
    3.6452   -6.9318    1.4388 H   0  0  0  0  0  0  0  0  0  0  0  0
    3.1569   -5.6533    0.3333 H   0  0  0  0  0  0  0  0  0  0  0  0
    3.4771   -5.2571    2.0142 H   0  0  0  0  0  0  0  0  0  0  0  0
 26  1  1  0
  1  2  2  0
  2 27  1  0
  2  3  1  0
  3  4  1  0
  4 28  1  0
  4 29  1  0
  4  5  1  0
  5  6  2  0
  5  7  1  0
  7 30  1  0
  7  8  1  0
  8  9  2  0
  9 31  1  0
  9 10  1  0
 10 11  1  0
 11 32  1  0
 11 33  1  0
 11 34  1  0
 10 12  2  0
 12 35  1  0
 12 13  1  0
 13 14  1  0
 14 36  1  0
 14 37  1  0
 14 38  1  0
  8 15  1  0
 13 15  2  0
 15 39  1  0
  3 16  2  0
 16 40  1  0
 16 17  1  0
 17 41  1  0
  1 18  1  0
 17 18  2  0
 18 19  1  0
 19 20  1  0
 20 21  1  0
 21 22  2  0
 21 23  1  0
 20 24  1  0
 24 42  1  0
 24 43  1  0
 24 44  1  0
 20 25  1  0
 25 45  1  0
 25 46  1  0
 25 47  1  0
M  CHG  1  23  -1
M  END
>  <conformer_energy>  (1) 
102.01000000000001

>  <ligand_smiles>  (1) 
Cc1cc(C)cc(NC(=O)Cc2ccc(OC(C)(C)C(=O)[O-])cc2)c1

>  <ligand_conf_name>  (1) 
MOL_0_isomer_0_conf_0

>  <ligand_molecule_name>  (1) 
MOL_0_isomer_0

>  <SMILES>  (1) 
Cc1cc(C)cc(NC(=O)Cc2ccc(OC(C)(C)C(=O)[O-])cc2)c1

$$$$
1G9V_ligand_con6
     RDKit          3D

 47 48  0  0  0  0  0  0  0  0999 V2000
    4.4378    3.8415   -1.9946 C   0  0  0  0  0  0  0  0  0  0  0  0
    3.9136    2.8091   -2.7708 C   0  0  0  0  0  0  0  0  0  0  0  0
    4.0090    1.4802   -2.3348 C   0  0  0  0  0  0  0  0  0  0  0  0
    3.2609    0.3919   -3.0612 C   0  0  0  0  0  0  0  0  0  0  0  0
    1.9438   -0.0572   -2.4236 C   0  0  0  0  0  0  0  0  0  0  0  0
    1.4498   -1.1274   -2.7864 O   0  0  0  0  0  0  0  0  0  0  0  0
    1.3873    0.8161   -1.5091 N   0  0  0  0  0  0  0  0  0  0  0  0
    0.1701    0.6917   -0.8081 C   0  0  0  0  0  0  0  0  0  0  0  0
   -0.7271   -0.3658   -0.9671 C   0  0  0  0  0  0  0  0  0  0  0  0
   -1.9210   -0.4131   -0.2282 C   0  0  0  0  0  0  0  0  0  0  0  0
   -2.8501   -1.5816   -0.3686 C   0  0  0  0  0  0  0  0  0  0  0  0
   -2.2030    0.6073    0.6886 C   0  0  0  0  0  0  0  0  0  0  0  0
   -1.3223    1.6819    0.8495 C   0  0  0  0  0  0  0  0  0  0  0  0
   -1.5961    2.7633    1.8529 C   0  0  0  0  0  0  0  0  0  0  0  0
   -0.1352    1.7085    0.1054 C   0  0  0  0  0  0  0  0  0  0  0  0
    4.6970    1.1931   -1.1476 C   0  0  0  0  0  0  0  0  0  0  0  0
    5.2139    2.2296   -0.3725 C   0  0  0  0  0  0  0  0  0  0  0  0
    5.0368    3.5507   -0.7731 C   0  0  0  0  0  0  0  0  0  0  0  0
    5.4814    4.5242    0.0719 O   0  0  0  0  0  0  0  0  0  0  0  0
    4.4579    5.4157    0.6293 C   0  0  0  0  0  0  0  0  0  0  0  0
    2.9697    4.9086    0.4973 C   0  0  0  0  0  0  0  0  0  0  0  0
    2.2487    5.5329   -0.3393 O   0  0  0  0  0  0  0  0  0  0  0  0
    2.6260    3.9408    1.2402 O   0  0  0  0  0  1  0  0  0  0  0  0
    4.7622    5.4993    2.1311 C   0  0  0  0  0  0  0  0  0  0  0  0
    4.6681    6.8002    0.0118 C   0  0  0  0  0  0  0  0  0  0  0  0
    4.3069    4.8711   -2.3122 H   0  0  0  0  0  0  0  0  0  0  0  0
    3.3740    3.0624   -3.6804 H   0  0  0  0  0  0  0  0  0  0  0  0
    3.9134   -0.4865   -3.1452 H   0  0  0  0  0  0  0  0  0  0  0  0
    3.0335    0.7121   -4.0850 H   0  0  0  0  0  0  0  0  0  0  0  0
    1.9147    1.6556   -1.2684 H   0  0  0  0  0  0  0  0  0  0  0  0
   -0.5155   -1.1735   -1.6598 H   0  0  0  0  0  0  0  0  0  0  0  0
   -2.7922   -2.0100   -1.3753 H   0  0  0  0  0  0  0  0  0  0  0  0
   -3.8890   -1.2771   -0.2047 H   0  0  0  0  0  0  0  0  0  0  0  0
   -2.5881   -2.3540    0.3601 H   0  0  0  0  0  0  0  0  0  0  0  0
   -3.1126    0.5652    1.2834 H   0  0  0  0  0  0  0  0  0  0  0  0
   -2.6730    2.8922    2.0031 H   0  0  0  0  0  0  0  0  0  0  0  0
   -1.1991    3.7252    1.5107 H   0  0  0  0  0  0  0  0  0  0  0  0
   -1.1340    2.5094    2.8117 H   0  0  0  0  0  0  0  0  0  0  0  0
    0.5618    2.5366    0.2575 H   0  0  0  0  0  0  0  0  0  0  0  0
    4.7724    0.1719   -0.7818 H   0  0  0  0  0  0  0  0  0  0  0  0
    5.6860    2.0189    0.5822 H   0  0  0  0  0  0  0  0  0  0  0  0
    4.0467    6.1433    2.6555 H   0  0  0  0  0  0  0  0  0  0  0  0
    5.7716    5.8930    2.3019 H   0  0  0  0  0  0  0  0  0  0  0  0
    4.7434    4.5085    2.6007 H   0  0  0  0  0  0  0  0  0  0  0  0
    3.9783    7.5387    0.4334 H   0  0  0  0  0  0  0  0  0  0  0  0
    4.5232    6.7863   -1.0726 H   0  0  0  0  0  0  0  0  0  0  0  0
    5.6929    7.1498    0.1779 H   0  0  0  0  0  0  0  0  0  0  0  0
 26  1  1  0
  1  2  2  0
  2 27  1  0
  2  3  1  0
  3  4  1  0
  4 28  1  0
  4 29  1  0
  4  5  1  0
  5  6  2  0
  5  7  1  0
  7 30  1  0
  7  8  1  0
  8  9  2  0
  9 31  1  0
  9 10  1  0
 10 11  1  0
 11 32  1  0
 11 33  1  0
 11 34  1  0
 10 12  2  0
 12 35  1  0
 12 13  1  0
 13 14  1  0
 14 36  1  0
 14 37  1  0
 14 38  1  0
  8 15  1  0
 13 15  2  0
 15 39  1  0
  3 16  2  0
 16 40  1  0
 16 17  1  0
 17 41  1  0
  1 18  1  0
 17 18  2  0
 18 19  1  0
 19 20  1  0
 20 21  1  0
 21 22  2  0
 21 23  1  0
 20 24  1  0
 24 42  1  0
 24 43  1  0
 24 44  1  0
 20 25  1  0
 25 45  1  0
 25 46  1  0
 25 47  1  0
M  CHG  1  23  -1
M  END
>  <conformer_energy>  (1) 
102.01000000000001

>  <ligand_smiles>  (1) 
Cc1cc(C)cc(NC(=O)Cc2ccc(OC(C)(C)C(=O)[O-])cc2)c1

>  <ligand_conf_name>  (1) 
MOL_0_isomer_0_conf_0

>  <ligand_molecule_name>  (1) 
MOL_0_isomer_0

>  <SMILES>  (1) 
Cc1cc(C)cc(NC(=O)Cc2ccc(OC(C)(C)C(=O)[O-])cc2)c1

$$$$
1G9V_ligand_con7
     RDKit          3D

 47 48  0  0  0  0  0  0  0  0999 V2000
    5.3460   -2.8726   -1.2762 C   0  0  0  0  0  0  0  0  0  0  0  0
    4.8468   -1.8059   -2.0296 C   0  0  0  0  0  0  0  0  0  0  0  0
    4.5131   -0.5926   -1.4152 C   0  0  0  0  0  0  0  0  0  0  0  0
    3.8779    0.5176   -2.2164 C   0  0  0  0  0  0  0  0  0  0  0  0
    2.3687    0.6812   -2.0375 C   0  0  0  0  0  0  0  0  0  0  0  0
    1.8512    1.7788   -2.2499 O   0  0  0  0  0  0  0  0  0  0  0  0
    1.6931   -0.4722   -1.6945 N   0  0  0  0  0  0  0  0  0  0  0  0
    0.3086   -0.6518   -1.5025 C   0  0  0  0  0  0  0  0  0  0  0  0
   -0.6489    0.3398   -1.7216 C   0  0  0  0  0  0  0  0  0  0  0  0
   -2.0106    0.0842   -1.4967 C   0  0  0  0  0  0  0  0  0  0  0  0
   -3.0207    1.1768   -1.6908 C   0  0  0  0  0  0  0  0  0  0  0  0
   -2.4060   -1.1754   -1.0297 C   0  0  0  0  0  0  0  0  0  0  0  0
   -1.4629   -2.1868   -0.8244 C   0  0  0  0  0  0  0  0  0  0  0  0
   -1.8874   -3.5242   -0.2915 C   0  0  0  0  0  0  0  0  0  0  0  0
   -0.1089   -1.9123   -1.0588 C   0  0  0  0  0  0  0  0  0  0  0  0
    4.7153   -0.4548   -0.0374 C   0  0  0  0  0  0  0  0  0  0  0  0
    5.2218   -1.5227    0.7065 C   0  0  0  0  0  0  0  0  0  0  0  0
    5.5145   -2.7447    0.0989 C   0  0  0  0  0  0  0  0  0  0  0  0
    5.9833   -3.7067    0.9447 O   0  0  0  0  0  0  0  0  0  0  0  0
    5.6754   -5.1056    0.6976 C   0  0  0  0  0  0  0  0  0  0  0  0
    6.4762   -5.7120   -0.4998 C   0  0  0  0  0  0  0  0  0  0  0  0
    7.7302   -5.5457   -0.4972 O   0  0  0  0  0  0  0  0  0  0  0  0
    5.7742   -6.3174   -1.3657 O   0  0  0  0  0  1  0  0  0  0  0  0
    6.2373   -5.8542    1.9185 C   0  0  0  0  0  0  0  0  0  0  0  0
    4.1608   -5.3416    0.6552 C   0  0  0  0  0  0  0  0  0  0  0  0
    5.6040   -3.7884   -1.7983 H   0  0  0  0  0  0  0  0  0  0  0  0
    4.7176   -1.9461   -3.0991 H   0  0  0  0  0  0  0  0  0  0  0  0
    4.0661    0.3691   -3.2854 H   0  0  0  0  0  0  0  0  0  0  0  0
    4.3573    1.4641   -1.9414 H   0  0  0  0  0  0  0  0  0  0  0  0
    2.2627   -1.2920   -1.5014 H   0  0  0  0  0  0  0  0  0  0  0  0
   -0.3593    1.3255   -2.0710 H   0  0  0  0  0  0  0  0  0  0  0  0
   -2.7573    1.7971   -2.5538 H   0  0  0  0  0  0  0  0  0  0  0  0
   -3.0650    1.8042   -0.7961 H   0  0  0  0  0  0  0  0  0  0  0  0
   -4.0178    0.7633   -1.8798 H   0  0  0  0  0  0  0  0  0  0  0  0
   -3.4564   -1.3696   -0.8250 H   0  0  0  0  0  0  0  0  0  0  0  0
   -2.8558   -3.8175   -0.7089 H   0  0  0  0  0  0  0  0  0  0  0  0
   -1.9644   -3.4804    0.8000 H   0  0  0  0  0  0  0  0  0  0  0  0
   -1.1667   -4.3056   -0.5614 H   0  0  0  0  0  0  0  0  0  0  0  0
    0.6248   -2.6963   -0.8803 H   0  0  0  0  0  0  0  0  0  0  0  0
    4.4695    0.4744    0.4738 H   0  0  0  0  0  0  0  0  0  0  0  0
    5.3746   -1.4160    1.7763 H   0  0  0  0  0  0  0  0  0  0  0  0
    6.1207   -6.9387    1.8240 H   0  0  0  0  0  0  0  0  0  0  0  0
    5.7279   -5.5336    2.8366 H   0  0  0  0  0  0  0  0  0  0  0  0
    7.2990   -5.6353    2.0741 H   0  0  0  0  0  0  0  0  0  0  0  0
    3.9214   -6.4092    0.6437 H   0  0  0  0  0  0  0  0  0  0  0  0
    3.7011   -4.9033   -0.2338 H   0  0  0  0  0  0  0  0  0  0  0  0
    3.6677   -4.8864    1.5216 H   0  0  0  0  0  0  0  0  0  0  0  0
 26  1  1  0
  1  2  2  0
  2 27  1  0
  2  3  1  0
  3  4  1  0
  4 28  1  0
  4 29  1  0
  4  5  1  0
  5  6  2  0
  5  7  1  0
  7 30  1  0
  7  8  1  0
  8  9  2  0
  9 31  1  0
  9 10  1  0
 10 11  1  0
 11 32  1  0
 11 33  1  0
 11 34  1  0
 10 12  2  0
 12 35  1  0
 12 13  1  0
 13 14  1  0
 14 36  1  0
 14 37  1  0
 14 38  1  0
  8 15  1  0
 13 15  2  0
 15 39  1  0
  3 16  2  0
 16 40  1  0
 16 17  1  0
 17 41  1  0
  1 18  1  0
 17 18  2  0
 18 19  1  0
 19 20  1  0
 20 21  1  0
 21 22  2  0
 21 23  1  0
 20 24  1  0
 24 42  1  0
 24 43  1  0
 24 44  1  0
 20 25  1  0
 25 45  1  0
 25 46  1  0
 25 47  1  0
M  CHG  1  23  -1
M  END
>  <conformer_energy>  (1) 
102.01000000000001

>  <ligand_smiles>  (1) 
Cc1cc(C)cc(NC(=O)Cc2ccc(OC(C)(C)C(=O)[O-])cc2)c1

>  <ligand_conf_name>  (1) 
MOL_0_isomer_0_conf_0

>  <ligand_molecule_name>  (1) 
MOL_0_isomer_0

>  <SMILES>  (1) 
Cc1cc(C)cc(NC(=O)Cc2ccc(OC(C)(C)C(=O)[O-])cc2)c1

$$$$
1G9V_ligand_con8
     RDKit          3D

 47 48  0  0  0  0  0  0  0  0999 V2000
    6.0007    0.2648   -2.1063 C   0  0  0  0  0  0  0  0  0  0  0  0
    5.2523   -0.6322   -1.3375 C   0  0  0  0  0  0  0  0  0  0  0  0
    4.4815   -1.6241   -1.9520 C   0  0  0  0  0  0  0  0  0  0  0  0
    3.6271   -2.5601   -1.1307 C   0  0  0  0  0  0  0  0  0  0  0  0
    2.1362   -2.3995   -1.4111 C   0  0  0  0  0  0  0  0  0  0  0  0
    1.4651   -3.3563   -1.7889 O   0  0  0  0  0  0  0  0  0  0  0  0
    1.6756   -1.1164   -1.1595 N   0  0  0  0  0  0  0  0  0  0  0  0
    0.3679   -0.6165   -1.3152 C   0  0  0  0  0  0  0  0  0  0  0  0
   -0.7235   -1.3824   -1.7199 C   0  0  0  0  0  0  0  0  0  0  0  0
   -1.9968   -0.8083   -1.8539 C   0  0  0  0  0  0  0  0  0  0  0  0
   -3.1571   -1.6332   -2.3264 C   0  0  0  0  0  0  0  0  0  0  0  0
   -2.1633    0.5542   -1.6035 C   0  0  0  0  0  0  0  0  0  0  0  0
   -1.0783    1.3442   -1.2116 C   0  0  0  0  0  0  0  0  0  0  0  0
   -1.2639    2.8035   -0.9134 C   0  0  0  0  0  0  0  0  0  0  0  0
    0.1783    0.7451   -1.0537 C   0  0  0  0  0  0  0  0  0  0  0  0
    4.5019   -1.7264   -3.3460 C   0  0  0  0  0  0  0  0  0  0  0  0
    5.2473   -0.8273   -4.1094 C   0  0  0  0  0  0  0  0  0  0  0  0
    5.9725    0.1910   -3.4931 C   0  0  0  0  0  0  0  0  0  0  0  0
    6.6507    1.0262   -4.3370 O   0  0  0  0  0  0  0  0  0  0  0  0
    6.6129    2.4574   -4.0683 C   0  0  0  0  0  0  0  0  0  0  0  0
    7.6183    2.8848   -2.9465 C   0  0  0  0  0  0  0  0  0  0  0  0
    8.8030    2.4564   -3.0511 O   0  0  0  0  0  0  0  0  0  0  0  0
    7.1391    3.6371   -2.0427 O   0  0  0  0  0  1  0  0  0  0  0  0
    7.1889    3.1138   -5.3341 C   0  0  0  0  0  0  0  0  0  0  0  0
    5.1793    2.9721   -3.8850 C   0  0  0  0  0  0  0  0  0  0  0  0
    6.6083    1.0090   -1.5972 H   0  0  0  0  0  0  0  0  0  0  0  0
    5.2911   -0.5416   -0.2538 H   0  0  0  0  0  0  0  0  0  0  0  0
    3.7883   -2.3977   -0.0583 H   0  0  0  0  0  0  0  0  0  0  0  0
    3.9221   -3.5967   -1.3441 H   0  0  0  0  0  0  0  0  0  0  0  0
    2.3787   -0.4364   -0.8907 H   0  0  0  0  0  0  0  0  0  0  0  0
   -0.6094   -2.4394   -1.9362 H   0  0  0  0  0  0  0  0  0  0  0  0
   -3.2812   -1.5214   -3.4079 H   0  0  0  0  0  0  0  0  0  0  0  0
   -4.0807   -1.3175   -1.8339 H   0  0  0  0  0  0  0  0  0  0  0  0
   -3.0145   -2.6954   -2.0965 H   0  0  0  0  0  0  0  0  0  0  0  0
   -3.1462    1.0019   -1.7193 H   0  0  0  0  0  0  0  0  0  0  0  0
   -2.0812    3.2258   -1.5077 H   0  0  0  0  0  0  0  0  0  0  0  0
   -0.3583    3.3683   -1.1655 H   0  0  0  0  0  0  0  0  0  0  0  0
   -1.4882    2.9448    0.1476 H   0  0  0  0  0  0  0  0  0  0  0  0
    1.0178    1.3592   -0.7250 H   0  0  0  0  0  0  0  0  0  0  0  0
    3.9333   -2.4984   -3.8459 H   0  0  0  0  0  0  0  0  0  0  0  0
    5.2559   -0.9053   -5.1933 H   0  0  0  0  0  0  0  0  0  0  0  0
    7.2776    4.2028   -5.2239 H   0  0  0  0  0  0  0  0  0  0  0  0
    6.5514    2.9045   -6.2016 H   0  0  0  0  0  0  0  0  0  0  0  0
    8.1725    2.7131   -5.5855 H   0  0  0  0  0  0  0  0  0  0  0  0
    5.1439    4.0717   -3.8528 H   0  0  0  0  0  0  0  0  0  0  0  0
    4.7292    2.6161   -2.9518 H   0  0  0  0  0  0  0  0  0  0  0  0
    4.5341    2.6279   -4.7006 H   0  0  0  0  0  0  0  0  0  0  0  0
 26  1  1  0
  1  2  2  0
  2 27  1  0
  2  3  1  0
  3  4  1  0
  4 28  1  0
  4 29  1  0
  4  5  1  0
  5  6  2  0
  5  7  1  0
  7 30  1  0
  7  8  1  0
  8  9  2  0
  9 31  1  0
  9 10  1  0
 10 11  1  0
 11 32  1  0
 11 33  1  0
 11 34  1  0
 10 12  2  0
 12 35  1  0
 12 13  1  0
 13 14  1  0
 14 36  1  0
 14 37  1  0
 14 38  1  0
  8 15  1  0
 13 15  2  0
 15 39  1  0
  3 16  2  0
 16 40  1  0
 16 17  1  0
 17 41  1  0
  1 18  1  0
 17 18  2  0
 18 19  1  0
 19 20  1  0
 20 21  1  0
 21 22  2  0
 21 23  1  0
 20 24  1  0
 24 42  1  0
 24 43  1  0
 24 44  1  0
 20 25  1  0
 25 45  1  0
 25 46  1  0
 25 47  1  0
M  CHG  1  23  -1
M  END
>  <conformer_energy>  (1) 
102.01000000000001

>  <ligand_smiles>  (1) 
Cc1cc(C)cc(NC(=O)Cc2ccc(OC(C)(C)C(=O)[O-])cc2)c1

>  <ligand_conf_name>  (1) 
MOL_0_isomer_0_conf_0

>  <ligand_molecule_name>  (1) 
MOL_0_isomer_0

>  <SMILES>  (1) 
Cc1cc(C)cc(NC(=O)Cc2ccc(OC(C)(C)C(=O)[O-])cc2)c1

$$$$
1G9V_ligand_con9
     RDKit          3D

 47 48  0  0  0  0  0  0  0  0999 V2000
    5.3751   -2.1645    0.2174 C   0  0  0  0  0  0  0  0  0  0  0  0
    4.9710   -0.9733   -0.3868 C   0  0  0  0  0  0  0  0  0  0  0  0
    4.4033   -0.9882   -1.6687 C   0  0  0  0  0  0  0  0  0  0  0  0
    3.7306    0.2475   -2.2114 C   0  0  0  0  0  0  0  0  0  0  0  0
    2.2146    0.3223   -1.9969 C   0  0  0  0  0  0  0  0  0  0  0  0
    1.5638    1.1335   -2.6604 O   0  0  0  0  0  0  0  0  0  0  0  0
    1.7010   -0.5279   -1.0353 N   0  0  0  0  0  0  0  0  0  0  0  0
    0.3671   -0.6623   -0.6008 C   0  0  0  0  0  0  0  0  0  0  0  0
   -0.6905    0.1309   -1.0488 C   0  0  0  0  0  0  0  0  0  0  0  0
   -1.9941   -0.0719   -0.5660 C   0  0  0  0  0  0  0  0  0  0  0  0
   -3.1183    0.8143   -1.0238 C   0  0  0  0  0  0  0  0  0  0  0  0
   -2.2270   -1.0713    0.3880 C   0  0  0  0  0  0  0  0  0  0  0  0
   -1.1812   -1.8859    0.8344 C   0  0  0  0  0  0  0  0  0  0  0  0
   -1.4174   -2.9505    1.8668 C   0  0  0  0  0  0  0  0  0  0  0  0
    0.1131   -1.6635    0.3446 C   0  0  0  0  0  0  0  0  0  0  0  0
    4.3274   -2.1969   -2.3702 C   0  0  0  0  0  0  0  0  0  0  0  0
    4.7335   -3.3826   -1.7595 C   0  0  0  0  0  0  0  0  0  0  0  0
    5.2049   -3.3764   -0.4455 C   0  0  0  0  0  0  0  0  0  0  0  0
    5.4623   -4.6065    0.0860 O   0  0  0  0  0  0  0  0  0  0  0  0
    5.1342   -4.8544    1.4906 C   0  0  0  0  0  0  0  0  0  0  0  0
    3.8889   -4.0532    2.0326 C   0  0  0  0  0  0  0  0  0  0  0  0
    2.7907   -4.1972    1.4121 O   0  0  0  0  0  0  0  0  0  0  0  0
    4.1142   -3.3379    3.0593 O   0  0  0  0  0  1  0  0  0  0  0  0
    4.6830   -6.3230    1.5423 C   0  0  0  0  0  0  0  0  0  0  0  0
    6.4166   -4.7230    2.3241 C   0  0  0  0  0  0  0  0  0  0  0  0
    5.7538   -2.1262    1.2341 H   0  0  0  0  0  0  0  0  0  0  0  0
    5.0327   -0.0518    0.1880 H   0  0  0  0  0  0  0  0  0  0  0  0
    3.9182    0.3054   -3.2903 H   0  0  0  0  0  0  0  0  0  0  0  0
    4.1753    1.1456   -1.7650 H   0  0  0  0  0  0  0  0  0  0  0  0
    2.3414   -1.1831   -0.5925 H   0  0  0  0  0  0  0  0  0  0  0  0
   -0.5209    0.9182   -1.7767 H   0  0  0  0  0  0  0  0  0  0  0  0
   -2.9177    1.2191   -2.0256 H   0  0  0  0  0  0  0  0  0  0  0  0
   -3.2472    1.6485   -0.3246 H   0  0  0  0  0  0  0  0  0  0  0  0
   -4.0574    0.2521   -1.0816 H   0  0  0  0  0  0  0  0  0  0  0  0
   -3.2300   -1.2195    0.7822 H   0  0  0  0  0  0  0  0  0  0  0  0
   -2.4245   -3.3726    1.7607 H   0  0  0  0  0  0  0  0  0  0  0  0
   -1.3135   -2.5277    2.8723 H   0  0  0  0  0  0  0  0  0  0  0  0
   -0.7043   -3.7756    1.7535 H   0  0  0  0  0  0  0  0  0  0  0  0
    0.9278   -2.2953    0.7093 H   0  0  0  0  0  0  0  0  0  0  0  0
    3.8845   -2.2382   -3.3636 H   0  0  0  0  0  0  0  0  0  0  0  0
    4.6130   -4.3312   -2.2762 H   0  0  0  0  0  0  0  0  0  0  0  0
    4.3887   -6.6214    2.5503 H   0  0  0  0  0  0  0  0  0  0  0  0
    5.4867   -6.9850    1.2045 H   0  0  0  0  0  0  0  0  0  0  0  0
    3.8399   -6.5131    0.8685 H   0  0  0  0  0  0  0  0  0  0  0  0
    6.2488   -5.0014    3.3744 H   0  0  0  0  0  0  0  0  0  0  0  0
    6.8110   -3.7021    2.3114 H   0  0  0  0  0  0  0  0  0  0  0  0
    7.2154   -5.3620    1.9206 H   0  0  0  0  0  0  0  0  0  0  0  0
 26  1  1  0
  1  2  2  0
  2 27  1  0
  2  3  1  0
  3  4  1  0
  4 28  1  0
  4 29  1  0
  4  5  1  0
  5  6  2  0
  5  7  1  0
  7 30  1  0
  7  8  1  0
  8  9  2  0
  9 31  1  0
  9 10  1  0
 10 11  1  0
 11 32  1  0
 11 33  1  0
 11 34  1  0
 10 12  2  0
 12 35  1  0
 12 13  1  0
 13 14  1  0
 14 36  1  0
 14 37  1  0
 14 38  1  0
  8 15  1  0
 13 15  2  0
 15 39  1  0
  3 16  2  0
 16 40  1  0
 16 17  1  0
 17 41  1  0
  1 18  1  0
 17 18  2  0
 18 19  1  0
 19 20  1  0
 20 21  1  0
 21 22  2  0
 21 23  1  0
 20 24  1  0
 24 42  1  0
 24 43  1  0
 24 44  1  0
 20 25  1  0
 25 45  1  0
 25 46  1  0
 25 47  1  0
M  CHG  1  23  -1
M  END
>  <conformer_energy>  (1) 
102.01000000000001

>  <ligand_smiles>  (1) 
Cc1cc(C)cc(NC(=O)Cc2ccc(OC(C)(C)C(=O)[O-])cc2)c1

>  <ligand_conf_name>  (1) 
MOL_0_isomer_0_conf_0

>  <ligand_molecule_name>  (1) 
MOL_0_isomer_0

>  <SMILES>  (1) 
Cc1cc(C)cc(NC(=O)Cc2ccc(OC(C)(C)C(=O)[O-])cc2)c1

$$$$
1G9V_ligand_con10
     RDKit          3D

 47 48  0  0  0  0  0  0  0  0999 V2000
    5.7458   -0.4323   -2.2077 C   0  0  0  0  0  0  0  0  0  0  0  0
    5.1170    0.5010   -1.3753 C   0  0  0  0  0  0  0  0  0  0  0  0
    4.2708    1.4812   -1.9072 C   0  0  0  0  0  0  0  0  0  0  0  0
    3.5356    2.4347   -0.9974 C   0  0  0  0  0  0  0  0  0  0  0  0
    2.0154    2.3700   -1.1217 C   0  0  0  0  0  0  0  0  0  0  0  0
    1.3526    3.4069   -1.1298 O   0  0  0  0  0  0  0  0  0  0  0  0
    1.5160    1.0796   -1.1300 N   0  0  0  0  0  0  0  0  0  0  0  0
    0.1766    0.6677   -1.2677 C   0  0  0  0  0  0  0  0  0  0  0  0
   -0.8906    1.5404   -1.4947 C   0  0  0  0  0  0  0  0  0  0  0  0
   -2.2025    1.0564   -1.6115 C   0  0  0  0  0  0  0  0  0  0  0  0
   -3.3378    1.9991   -1.8773 C   0  0  0  0  0  0  0  0  0  0  0  0
   -2.4343   -0.3233   -1.5353 C   0  0  0  0  0  0  0  0  0  0  0  0
   -1.3739   -1.2143   -1.3331 C   0  0  0  0  0  0  0  0  0  0  0  0
   -1.6245   -2.6921   -1.2469 C   0  0  0  0  0  0  0  0  0  0  0  0
   -0.0760   -0.7061   -1.1821 C   0  0  0  0  0  0  0  0  0  0  0  0
    4.0918    1.5334   -3.2909 C   0  0  0  0  0  0  0  0  0  0  0  0
    4.7199    0.5967   -4.1150 C   0  0  0  0  0  0  0  0  0  0  0  0
    5.5470   -0.3960   -3.5835 C   0  0  0  0  0  0  0  0  0  0  0  0
    6.0688   -1.2402   -4.5176 O   0  0  0  0  0  0  0  0  0  0  0  0
    7.0408   -2.2672   -4.1815 C   0  0  0  0  0  0  0  0  0  0  0  0
    6.4924   -3.3283   -3.1638 C   0  0  0  0  0  0  0  0  0  0  0  0
    5.4015   -3.8999   -3.4611 O   0  0  0  0  0  0  0  0  0  0  0  0
    7.2111   -3.5042   -2.1310 O   0  0  0  0  0  1  0  0  0  0  0  0
    7.2208   -3.0707   -5.4832 C   0  0  0  0  0  0  0  0  0  0  0  0
    8.3905   -1.6293   -3.8392 C   0  0  0  0  0  0  0  0  0  0  0  0
    6.3715   -1.1871   -1.7408 H   0  0  0  0  0  0  0  0  0  0  0  0
    5.2910    0.4325   -0.3040 H   0  0  0  0  0  0  0  0  0  0  0  0
    3.8655    3.4575   -1.2210 H   0  0  0  0  0  0  0  0  0  0  0  0
    3.7850    2.2360    0.0539 H   0  0  0  0  0  0  0  0  0  0  0  0
    2.1992    0.3328   -1.0191 H   0  0  0  0  0  0  0  0  0  0  0  0
   -0.7231    2.6098   -1.5960 H   0  0  0  0  0  0  0  0  0  0  0  0
   -3.5605    2.0285   -2.9484 H   0  0  0  0  0  0  0  0  0  0  0  0
   -3.0988    3.0135   -1.5414 H   0  0  0  0  0  0  0  0  0  0  0  0
   -4.2356    1.6828   -1.3361 H   0  0  0  0  0  0  0  0  0  0  0  0
   -3.4463   -0.7043   -1.6460 H   0  0  0  0  0  0  0  0  0  0  0  0
   -2.4640   -2.9807   -1.8905 H   0  0  0  0  0  0  0  0  0  0  0  0
   -1.8518   -2.9812   -0.2160 H   0  0  0  0  0  0  0  0  0  0  0  0
   -0.7509   -3.2583   -1.5886 H   0  0  0  0  0  0  0  0  0  0  0  0
    0.7465   -1.4034   -1.0135 H   0  0  0  0  0  0  0  0  0  0  0  0
    3.4456    2.2839   -3.7393 H   0  0  0  0  0  0  0  0  0  0  0  0
    4.5548    0.6259   -5.1903 H   0  0  0  0  0  0  0  0  0  0  0  0
    7.8785   -3.9364   -5.3448 H   0  0  0  0  0  0  0  0  0  0  0  0
    7.6486   -2.4380   -6.2702 H   0  0  0  0  0  0  0  0  0  0  0  0
    6.2583   -3.4259   -5.8771 H   0  0  0  0  0  0  0  0  0  0  0  0
    9.1836   -2.3833   -3.7721 H   0  0  0  0  0  0  0  0  0  0  0  0
    8.3668   -1.0958   -2.8834 H   0  0  0  0  0  0  0  0  0  0  0  0
    8.6769   -0.8949   -4.6034 H   0  0  0  0  0  0  0  0  0  0  0  0
 26  1  1  0
  1  2  2  0
  2 27  1  0
  2  3  1  0
  3  4  1  0
  4 28  1  0
  4 29  1  0
  4  5  1  0
  5  6  2  0
  5  7  1  0
  7 30  1  0
  7  8  1  0
  8  9  2  0
  9 31  1  0
  9 10  1  0
 10 11  1  0
 11 32  1  0
 11 33  1  0
 11 34  1  0
 10 12  2  0
 12 35  1  0
 12 13  1  0
 13 14  1  0
 14 36  1  0
 14 37  1  0
 14 38  1  0
  8 15  1  0
 13 15  2  0
 15 39  1  0
  3 16  2  0
 16 40  1  0
 16 17  1  0
 17 41  1  0
  1 18  1  0
 17 18  2  0
 18 19  1  0
 19 20  1  0
 20 21  1  0
 21 22  2  0
 21 23  1  0
 20 24  1  0
 24 42  1  0
 24 43  1  0
 24 44  1  0
 20 25  1  0
 25 45  1  0
 25 46  1  0
 25 47  1  0
M  CHG  1  23  -1
M  END
>  <conformer_energy>  (1) 
102.01000000000001

>  <ligand_smiles>  (1) 
Cc1cc(C)cc(NC(=O)Cc2ccc(OC(C)(C)C(=O)[O-])cc2)c1

>  <ligand_conf_name>  (1) 
MOL_0_isomer_0_conf_0

>  <ligand_molecule_name>  (1) 
MOL_0_isomer_0

>  <SMILES>  (1) 
Cc1cc(C)cc(NC(=O)Cc2ccc(OC(C)(C)C(=O)[O-])cc2)c1

$$$$
1G9V_ligand_con11
     RDKit          3D

 47 48  0  0  0  0  0  0  0  0999 V2000
    5.3144    2.8627   -1.4537 C   0  0  0  0  0  0  0  0  0  0  0  0
    4.8490    1.8103   -2.2427 C   0  0  0  0  0  0  0  0  0  0  0  0
    4.5315    0.5770   -1.6603 C   0  0  0  0  0  0  0  0  0  0  0  0
    3.7958   -0.4722   -2.4571 C   0  0  0  0  0  0  0  0  0  0  0  0
    2.2973   -0.5798   -2.1592 C   0  0  0  0  0  0  0  0  0  0  0  0
    1.7124   -1.6323   -2.4199 O   0  0  0  0  0  0  0  0  0  0  0  0
    1.7115    0.5638   -1.6470 N   0  0  0  0  0  0  0  0  0  0  0  0
    0.3616    0.7866   -1.3129 C   0  0  0  0  0  0  0  0  0  0  0  0
   -0.6614   -0.1429   -1.5054 C   0  0  0  0  0  0  0  0  0  0  0  0
   -1.9847    0.1636   -1.1471 C   0  0  0  0  0  0  0  0  0  0  0  0
   -3.0624   -0.8585   -1.3503 C   0  0  0  0  0  0  0  0  0  0  0  0
   -2.2758    1.4152   -0.5916 C   0  0  0  0  0  0  0  0  0  0  0  0
   -1.2645    2.3631   -0.4069 C   0  0  0  0  0  0  0  0  0  0  0  0
   -1.5582    3.6957    0.2146 C   0  0  0  0  0  0  0  0  0  0  0  0
    0.0517    2.0351   -0.7578 C   0  0  0  0  0  0  0  0  0  0  0  0
    4.7680    0.3850   -0.2940 C   0  0  0  0  0  0  0  0  0  0  0  0
    5.2331    1.4418    0.4870 C   0  0  0  0  0  0  0  0  0  0  0  0
    5.4528    2.6980   -0.0792 C   0  0  0  0  0  0  0  0  0  0  0  0
    5.7913    3.6807    0.8028 O   0  0  0  0  0  0  0  0  0  0  0  0
    5.2762    5.0322    0.5941 C   0  0  0  0  0  0  0  0  0  0  0  0
    3.8553    5.1019   -0.0843 C   0  0  0  0  0  0  0  0  0  0  0  0
    2.9109    4.4757    0.4825 O   0  0  0  0  0  0  0  0  0  0  0  0
    3.7999    5.7928   -1.1467 O   0  0  0  0  0  1  0  0  0  0  0  0
    5.0417    5.5956    2.0046 C   0  0  0  0  0  0  0  0  0  0  0  0
    6.3689    5.8712   -0.0776 C   0  0  0  0  0  0  0  0  0  0  0  0
    5.4950    3.8215   -1.9286 H   0  0  0  0  0  0  0  0  0  0  0  0
    4.6702    1.9942   -3.2991 H   0  0  0  0  0  0  0  0  0  0  0  0
    4.2540   -1.4498   -2.2557 H   0  0  0  0  0  0  0  0  0  0  0  0
    3.9061   -0.2843   -3.5317 H   0  0  0  0  0  0  0  0  0  0  0  0
    2.3204    1.3560   -1.4483 H   0  0  0  0  0  0  0  0  0  0  0  0
   -0.4536   -1.1197   -1.9304 H   0  0  0  0  0  0  0  0  0  0  0  0
   -3.0920   -1.1747   -2.3977 H   0  0  0  0  0  0  0  0  0  0  0  0
   -4.0495   -0.4581   -1.0956 H   0  0  0  0  0  0  0  0  0  0  0  0
   -2.8793   -1.7312   -0.7165 H   0  0  0  0  0  0  0  0  0  0  0  0
   -3.2949    1.6552   -0.3006 H   0  0  0  0  0  0  0  0  0  0  0  0
   -2.5931    3.9966    0.0215 H   0  0  0  0  0  0  0  0  0  0  0  0
   -0.9111    4.4728   -0.2057 H   0  0  0  0  0  0  0  0  0  0  0  0
   -1.4001    3.6494    1.2961 H   0  0  0  0  0  0  0  0  0  0  0  0
    0.8407    2.7724   -0.5872 H   0  0  0  0  0  0  0  0  0  0  0  0
    4.5225   -0.5592    0.1852 H   0  0  0  0  0  0  0  0  0  0  0  0
    5.3543    1.3120    1.5583 H   0  0  0  0  0  0  0  0  0  0  0  0
    4.6458    6.6197    1.9716 H   0  0  0  0  0  0  0  0  0  0  0  0
    5.9774    5.6072    2.5771 H   0  0  0  0  0  0  0  0  0  0  0  0
    4.3432    4.9763    2.5798 H   0  0  0  0  0  0  0  0  0  0  0  0
    6.0850    6.9282   -0.1370 H   0  0  0  0  0  0  0  0  0  0  0  0
    6.5812    5.5253   -1.0931 H   0  0  0  0  0  0  0  0  0  0  0  0
    7.3130    5.7958    0.4764 H   0  0  0  0  0  0  0  0  0  0  0  0
 26  1  1  0
  1  2  2  0
  2 27  1  0
  2  3  1  0
  3  4  1  0
  4 28  1  0
  4 29  1  0
  4  5  1  0
  5  6  2  0
  5  7  1  0
  7 30  1  0
  7  8  1  0
  8  9  2  0
  9 31  1  0
  9 10  1  0
 10 11  1  0
 11 32  1  0
 11 33  1  0
 11 34  1  0
 10 12  2  0
 12 35  1  0
 12 13  1  0
 13 14  1  0
 14 36  1  0
 14 37  1  0
 14 38  1  0
  8 15  1  0
 13 15  2  0
 15 39  1  0
  3 16  2  0
 16 40  1  0
 16 17  1  0
 17 41  1  0
  1 18  1  0
 17 18  2  0
 18 19  1  0
 19 20  1  0
 20 21  1  0
 21 22  2  0
 21 23  1  0
 20 24  1  0
 24 42  1  0
 24 43  1  0
 24 44  1  0
 20 25  1  0
 25 45  1  0
 25 46  1  0
 25 47  1  0
M  CHG  1  23  -1
M  END
>  <conformer_energy>  (1) 
102.01000000000001

>  <ligand_smiles>  (1) 
Cc1cc(C)cc(NC(=O)Cc2ccc(OC(C)(C)C(=O)[O-])cc2)c1

>  <ligand_conf_name>  (1) 
MOL_0_isomer_0_conf_0

>  <ligand_molecule_name>  (1) 
MOL_0_isomer_0

>  <SMILES>  (1) 
Cc1cc(C)cc(NC(=O)Cc2ccc(OC(C)(C)C(=O)[O-])cc2)c1

$$$$
1G9V_ligand_con12
     RDKit          3D

 47 48  0  0  0  0  0  0  0  0999 V2000
    5.0886    2.6515    0.6740 C   0  0  0  0  0  0  0  0  0  0  0  0
    4.7112    1.3805    0.2263 C   0  0  0  0  0  0  0  0  0  0  0  0
    4.2265    1.1952   -1.0744 C   0  0  0  0  0  0  0  0  0  0  0  0
    3.7600   -0.1653   -1.5317 C   0  0  0  0  0  0  0  0  0  0  0  0
    2.2501   -0.3014   -1.7106 C   0  0  0  0  0  0  0  0  0  0  0  0
    1.8027   -1.0010   -2.6184 O   0  0  0  0  0  0  0  0  0  0  0  0
    1.5031    0.3497   -0.7439 N   0  0  0  0  0  0  0  0  0  0  0  0
    0.1025    0.3671   -0.5888 C   0  0  0  0  0  0  0  0  0  0  0  0
   -0.7843   -0.3511   -1.3918 C   0  0  0  0  0  0  0  0  0  0  0  0
   -2.1693   -0.2838   -1.1721 C   0  0  0  0  0  0  0  0  0  0  0  0
   -3.1049   -1.0945   -2.0198 C   0  0  0  0  0  0  0  0  0  0  0  0
   -2.6616    0.4984   -0.1208 C   0  0  0  0  0  0  0  0  0  0  0  0
   -1.7896    1.2375    0.6850 C   0  0  0  0  0  0  0  0  0  0  0  0
   -2.3152    2.0582    1.8252 C   0  0  0  0  0  0  0  0  0  0  0  0
   -0.4102    1.1563    0.4497 C   0  0  0  0  0  0  0  0  0  0  0  0
    4.1497    2.2997   -1.9289 C   0  0  0  0  0  0  0  0  0  0  0  0
    4.5364    3.5636   -1.4765 C   0  0  0  0  0  0  0  0  0  0  0  0
    4.9907    3.7538   -0.1682 C   0  0  0  0  0  0  0  0  0  0  0  0
    5.3173    5.0432    0.1314 O   0  0  0  0  0  0  0  0  0  0  0  0
    5.3938    5.5072    1.5068 C   0  0  0  0  0  0  0  0  0  0  0  0
    6.6036    4.9020    2.2955 C   0  0  0  0  0  0  0  0  0  0  0  0
    7.7450    4.9977    1.7579 O   0  0  0  0  0  0  0  0  0  0  0  0
    6.3084    4.3735    3.4119 O   0  0  0  0  0  1  0  0  0  0  0  0
    5.7505    7.0004    1.3975 C   0  0  0  0  0  0  0  0  0  0  0  0
    4.0300    5.4010    2.1972 C   0  0  0  0  0  0  0  0  0  0  0  0
    5.4696    2.7384    1.6864 H   0  0  0  0  0  0  0  0  0  0  0  0
    4.8066    0.5430    0.9141 H   0  0  0  0  0  0  0  0  0  0  0  0
    4.0764   -0.9385   -0.8212 H   0  0  0  0  0  0  0  0  0  0  0  0
    4.2448   -0.3969   -2.4882 H   0  0  0  0  0  0  0  0  0  0  0  0
    2.0211    0.9200   -0.0833 H   0  0  0  0  0  0  0  0  0  0  0  0
   -0.4213   -0.9798   -2.1989 H   0  0  0  0  0  0  0  0  0  0  0  0
   -2.7271   -1.1817   -3.0439 H   0  0  0  0  0  0  0  0  0  0  0  0
   -4.0908   -0.6212   -2.0777 H   0  0  0  0  0  0  0  0  0  0  0  0
   -3.2190   -2.0972   -1.5967 H   0  0  0  0  0  0  0  0  0  0  0  0
   -3.7323    0.5342    0.0690 H   0  0  0  0  0  0  0  0  0  0  0  0
   -3.3267    2.4205    1.6131 H   0  0  0  0  0  0  0  0  0  0  0  0
   -1.6854    2.9376    1.9958 H   0  0  0  0  0  0  0  0  0  0  0  0
   -2.3398    1.4567    2.7389 H   0  0  0  0  0  0  0  0  0  0  0  0
    0.2666    1.7207    1.0886 H   0  0  0  0  0  0  0  0  0  0  0  0
    3.7869    2.1907   -2.9481 H   0  0  0  0  0  0  0  0  0  0  0  0
    4.4783    4.4187   -2.1452 H   0  0  0  0  0  0  0  0  0  0  0  0
    5.9019    7.4581    2.3815 H   0  0  0  0  0  0  0  0  0  0  0  0
    4.9550    7.5510    0.8811 H   0  0  0  0  0  0  0  0  0  0  0  0
    6.6575    7.1576    0.8015 H   0  0  0  0  0  0  0  0  0  0  0  0
    4.0289    5.9159    3.1643 H   0  0  0  0  0  0  0  0  0  0  0  0
    3.7455    4.3616    2.3869 H   0  0  0  0  0  0  0  0  0  0  0  0
    3.2402    5.8334    1.5725 H   0  0  0  0  0  0  0  0  0  0  0  0
 26  1  1  0
  1  2  2  0
  2 27  1  0
  2  3  1  0
  3  4  1  0
  4 28  1  0
  4 29  1  0
  4  5  1  0
  5  6  2  0
  5  7  1  0
  7 30  1  0
  7  8  1  0
  8  9  2  0
  9 31  1  0
  9 10  1  0
 10 11  1  0
 11 32  1  0
 11 33  1  0
 11 34  1  0
 10 12  2  0
 12 35  1  0
 12 13  1  0
 13 14  1  0
 14 36  1  0
 14 37  1  0
 14 38  1  0
  8 15  1  0
 13 15  2  0
 15 39  1  0
  3 16  2  0
 16 40  1  0
 16 17  1  0
 17 41  1  0
  1 18  1  0
 17 18  2  0
 18 19  1  0
 19 20  1  0
 20 21  1  0
 21 22  2  0
 21 23  1  0
 20 24  1  0
 24 42  1  0
 24 43  1  0
 24 44  1  0
 20 25  1  0
 25 45  1  0
 25 46  1  0
 25 47  1  0
M  CHG  1  23  -1
M  END
>  <conformer_energy>  (1) 
102.01000000000001

>  <ligand_smiles>  (1) 
Cc1cc(C)cc(NC(=O)Cc2ccc(OC(C)(C)C(=O)[O-])cc2)c1

>  <ligand_conf_name>  (1) 
MOL_0_isomer_0_conf_0

>  <ligand_molecule_name>  (1) 
MOL_0_isomer_0

>  <SMILES>  (1) 
Cc1cc(C)cc(NC(=O)Cc2ccc(OC(C)(C)C(=O)[O-])cc2)c1

$$$$
1G9V_ligand_con13
     RDKit          3D

 47 48  0  0  0  0  0  0  0  0999 V2000
    5.4147   -2.8802   -1.2317 C   0  0  0  0  0  0  0  0  0  0  0  0
    4.9112   -1.8418   -2.0216 C   0  0  0  0  0  0  0  0  0  0  0  0
    4.5313   -0.6245   -1.4407 C   0  0  0  0  0  0  0  0  0  0  0  0
    3.8995    0.4590   -2.2809 C   0  0  0  0  0  0  0  0  0  0  0  0
    2.3975    0.6463   -2.0724 C   0  0  0  0  0  0  0  0  0  0  0  0
    1.9000    1.7653   -2.2021 O   0  0  0  0  0  0  0  0  0  0  0  0
    1.7056   -0.5219   -1.7988 N   0  0  0  0  0  0  0  0  0  0  0  0
    0.3217   -0.6873   -1.5934 C   0  0  0  0  0  0  0  0  0  0  0  0
   -0.6206    0.3310   -1.7415 C   0  0  0  0  0  0  0  0  0  0  0  0
   -1.9831    0.0862   -1.5082 C   0  0  0  0  0  0  0  0  0  0  0  0
   -2.9751    1.2061   -1.6354 C   0  0  0  0  0  0  0  0  0  0  0  0
   -2.3950   -1.1910   -1.1109 C   0  0  0  0  0  0  0  0  0  0  0  0
   -1.4676   -2.2287   -0.9766 C   0  0  0  0  0  0  0  0  0  0  0  0
   -1.9112   -3.5873   -0.5229 C   0  0  0  0  0  0  0  0  0  0  0  0
   -0.1119   -1.9649   -1.2117 C   0  0  0  0  0  0  0  0  0  0  0  0
    4.6965   -0.4500   -0.0608 C   0  0  0  0  0  0  0  0  0  0  0  0
    5.2050   -1.4899    0.7205 C   0  0  0  0  0  0  0  0  0  0  0  0
    5.5377   -2.7186    0.1454 C   0  0  0  0  0  0  0  0  0  0  0  0
    6.0063   -3.6574    1.0177 O   0  0  0  0  0  0  0  0  0  0  0  0
    5.6458   -5.0562    0.8280 C   0  0  0  0  0  0  0  0  0  0  0  0
    6.4424   -5.7382   -0.3349 C   0  0  0  0  0  0  0  0  0  0  0  0
    5.7335   -6.3484   -1.1938 O   0  0  0  0  0  0  0  0  0  0  0  0
    7.7017   -5.6168   -0.3142 O   0  0  0  0  0  1  0  0  0  0  0  0
    6.1632   -5.7722    2.0864 C   0  0  0  0  0  0  0  0  0  0  0  0
    4.1238   -5.2442    0.7720 C   0  0  0  0  0  0  0  0  0  0  0  0
    5.7147   -3.8009   -1.7256 H   0  0  0  0  0  0  0  0  0  0  0  0
    4.8172   -2.0071   -3.0925 H   0  0  0  0  0  0  0  0  0  0  0  0
    4.0635    0.2633   -3.3481 H   0  0  0  0  0  0  0  0  0  0  0  0
    4.3984    1.4107   -2.0523 H   0  0  0  0  0  0  0  0  0  0  0  0
    2.2637   -1.3611   -1.6716 H   0  0  0  0  0  0  0  0  0  0  0  0
   -0.3188    1.3287   -2.0464 H   0  0  0  0  0  0  0  0  0  0  0  0
   -2.7727    1.8021   -2.5336 H   0  0  0  0  0  0  0  0  0  0  0  0
   -2.9232    1.8557   -0.7523 H   0  0  0  0  0  0  0  0  0  0  0  0
   -3.9964    0.8172   -1.7243 H   0  0  0  0  0  0  0  0  0  0  0  0
   -3.4464   -1.3804   -0.9055 H   0  0  0  0  0  0  0  0  0  0  0  0
   -2.8826   -3.8427   -0.9606 H   0  0  0  0  0  0  0  0  0  0  0  0
   -1.9963   -3.6069    0.5676 H   0  0  0  0  0  0  0  0  0  0  0  0
   -1.2005   -4.3613   -0.8333 H   0  0  0  0  0  0  0  0  0  0  0  0
    0.6118   -2.7691   -1.0816 H   0  0  0  0  0  0  0  0  0  0  0  0
    4.4214    0.4863    0.4180 H   0  0  0  0  0  0  0  0  0  0  0  0
    5.3286   -1.3564    1.7922 H   0  0  0  0  0  0  0  0  0  0  0  0
    6.0100   -6.8585    2.0333 H   0  0  0  0  0  0  0  0  0  0  0  0
    5.6522   -5.3953    2.9813 H   0  0  0  0  0  0  0  0  0  0  0  0
    7.2323   -5.5836    2.2489 H   0  0  0  0  0  0  0  0  0  0  0  0
    3.8531   -6.3076    0.7789 H   0  0  0  0  0  0  0  0  0  0  0  0
    3.6925   -4.8070   -0.1360 H   0  0  0  0  0  0  0  0  0  0  0  0
    3.6334   -4.7536    1.6238 H   0  0  0  0  0  0  0  0  0  0  0  0
 26  1  1  0
  1  2  2  0
  2 27  1  0
  2  3  1  0
  3  4  1  0
  4 28  1  0
  4 29  1  0
  4  5  1  0
  5  6  2  0
  5  7  1  0
  7 30  1  0
  7  8  1  0
  8  9  2  0
  9 31  1  0
  9 10  1  0
 10 11  1  0
 11 32  1  0
 11 33  1  0
 11 34  1  0
 10 12  2  0
 12 35  1  0
 12 13  1  0
 13 14  1  0
 14 36  1  0
 14 37  1  0
 14 38  1  0
  8 15  1  0
 13 15  2  0
 15 39  1  0
  3 16  2  0
 16 40  1  0
 16 17  1  0
 17 41  1  0
  1 18  1  0
 17 18  2  0
 18 19  1  0
 19 20  1  0
 20 21  1  0
 21 22  2  0
 21 23  1  0
 20 24  1  0
 24 42  1  0
 24 43  1  0
 24 44  1  0
 20 25  1  0
 25 45  1  0
 25 46  1  0
 25 47  1  0
M  CHG  1  23  -1
M  END
>  <conformer_energy>  (1) 
102.01000000000001

>  <ligand_smiles>  (1) 
Cc1cc(C)cc(NC(=O)Cc2ccc(OC(C)(C)C(=O)[O-])cc2)c1

>  <ligand_conf_name>  (1) 
MOL_0_isomer_0_conf_0

>  <ligand_molecule_name>  (1) 
MOL_0_isomer_0

>  <SMILES>  (1) 
Cc1cc(C)cc(NC(=O)Cc2ccc(OC(C)(C)C(=O)[O-])cc2)c1

$$$$
1G9V_ligand_con14
     RDKit          3D

 47 48  0  0  0  0  0  0  0  0999 V2000
    6.0016    0.2296   -2.1203 C   0  0  0  0  0  0  0  0  0  0  0  0
    5.2790   -0.6683   -1.3293 C   0  0  0  0  0  0  0  0  0  0  0  0
    4.4834   -1.6601   -1.9238 C   0  0  0  0  0  0  0  0  0  0  0  0
    3.6275   -2.5748   -1.0807 C   0  0  0  0  0  0  0  0  0  0  0  0
    2.1355   -2.3966   -1.3457 C   0  0  0  0  0  0  0  0  0  0  0  0
    1.4412   -3.3525   -1.6826 O   0  0  0  0  0  0  0  0  0  0  0  0
    1.7024   -1.0984   -1.1325 N   0  0  0  0  0  0  0  0  0  0  0  0
    0.4039   -0.5788   -1.2991 C   0  0  0  0  0  0  0  0  0  0  0  0
   -0.6905   -1.3320   -1.7313 C   0  0  0  0  0  0  0  0  0  0  0  0
   -1.9596   -0.7455   -1.8595 C   0  0  0  0  0  0  0  0  0  0  0  0
   -3.1290   -1.5635   -2.3300 C   0  0  0  0  0  0  0  0  0  0  0  0
   -2.1190    0.6184   -1.5834 C   0  0  0  0  0  0  0  0  0  0  0  0
   -1.0286    1.3958   -1.1748 C   0  0  0  0  0  0  0  0  0  0  0  0
   -1.2031    2.8528   -0.8679 C   0  0  0  0  0  0  0  0  0  0  0  0
    0.2234    0.7829   -1.0181 C   0  0  0  0  0  0  0  0  0  0  0  0
    4.4630   -1.7692   -3.3212 C   0  0  0  0  0  0  0  0  0  0  0  0
    5.1855   -0.8698   -4.1044 C   0  0  0  0  0  0  0  0  0  0  0  0
    5.9291    0.1532   -3.5086 C   0  0  0  0  0  0  0  0  0  0  0  0
    6.5791    0.9815   -4.3749 O   0  0  0  0  0  0  0  0  0  0  0  0
    6.5684    2.4176   -4.1194 C   0  0  0  0  0  0  0  0  0  0  0  0
    7.6096    2.8439   -3.0296 C   0  0  0  0  0  0  0  0  0  0  0  0
    7.1456    3.5540   -2.0819 O   0  0  0  0  0  0  0  0  0  0  0  0
    8.8056    2.4614   -3.2041 O   0  0  0  0  0  1  0  0  0  0  0  0
    7.1154    3.0498   -5.4143 C   0  0  0  0  0  0  0  0  0  0  0  0
    5.1462    2.9520   -3.8969 C   0  0  0  0  0  0  0  0  0  0  0  0
    6.6171    0.9807   -1.6317 H   0  0  0  0  0  0  0  0  0  0  0  0
    5.3498   -0.5757   -0.2468 H   0  0  0  0  0  0  0  0  0  0  0  0
    3.8037   -2.4073   -0.0126 H   0  0  0  0  0  0  0  0  0  0  0  0
    3.9036   -3.6135   -1.2909 H   0  0  0  0  0  0  0  0  0  0  0  0
    2.4166   -0.4261   -0.8641 H   0  0  0  0  0  0  0  0  0  0  0  0
   -0.5808   -2.3874   -1.9752 H   0  0  0  0  0  0  0  0  0  0  0  0
   -3.3375   -1.3502   -3.3859 H   0  0  0  0  0  0  0  0  0  0  0  0
   -4.0201   -1.3388   -1.7333 H   0  0  0  0  0  0  0  0  0  0  0  0
   -2.9301   -2.6348   -2.2250 H   0  0  0  0  0  0  0  0  0  0  0  0
   -3.0997    1.0797   -1.6927 H   0  0  0  0  0  0  0  0  0  0  0  0
   -1.9942    3.2917   -1.4910 H   0  0  0  0  0  0  0  0  0  0  0  0
   -0.2850    3.4040   -1.0827 H   0  0  0  0  0  0  0  0  0  0  0  0
   -1.4619    2.9858    0.1866 H   0  0  0  0  0  0  0  0  0  0  0  0
    1.0654    1.3856   -0.6767 H   0  0  0  0  0  0  0  0  0  0  0  0
    3.8685   -2.5400   -3.8094 H   0  0  0  0  0  0  0  0  0  0  0  0
    5.1510   -0.9423   -5.1901 H   0  0  0  0  0  0  0  0  0  0  0  0
    7.2354    4.1382   -5.3261 H   0  0  0  0  0  0  0  0  0  0  0  0
    6.4432    2.8442   -6.2533 H   0  0  0  0  0  0  0  0  0  0  0  0
    8.0860    2.6201   -5.7004 H   0  0  0  0  0  0  0  0  0  0  0  0
    5.1295    4.0488   -3.9016 H   0  0  0  0  0  0  0  0  0  0  0  0
    4.7297    2.6262   -2.9373 H   0  0  0  0  0  0  0  0  0  0  0  0
    4.4641    2.5952   -4.6761 H   0  0  0  0  0  0  0  0  0  0  0  0
 26  1  1  0
  1  2  2  0
  2 27  1  0
  2  3  1  0
  3  4  1  0
  4 28  1  0
  4 29  1  0
  4  5  1  0
  5  6  2  0
  5  7  1  0
  7 30  1  0
  7  8  1  0
  8  9  2  0
  9 31  1  0
  9 10  1  0
 10 11  1  0
 11 32  1  0
 11 33  1  0
 11 34  1  0
 10 12  2  0
 12 35  1  0
 12 13  1  0
 13 14  1  0
 14 36  1  0
 14 37  1  0
 14 38  1  0
  8 15  1  0
 13 15  2  0
 15 39  1  0
  3 16  2  0
 16 40  1  0
 16 17  1  0
 17 41  1  0
  1 18  1  0
 17 18  2  0
 18 19  1  0
 19 20  1  0
 20 21  1  0
 21 22  2  0
 21 23  1  0
 20 24  1  0
 24 42  1  0
 24 43  1  0
 24 44  1  0
 20 25  1  0
 25 45  1  0
 25 46  1  0
 25 47  1  0
M  CHG  1  23  -1
M  END
>  <conformer_energy>  (1) 
102.01000000000001

>  <ligand_smiles>  (1) 
Cc1cc(C)cc(NC(=O)Cc2ccc(OC(C)(C)C(=O)[O-])cc2)c1

>  <ligand_conf_name>  (1) 
MOL_0_isomer_0_conf_0

>  <ligand_molecule_name>  (1) 
MOL_0_isomer_0

>  <SMILES>  (1) 
Cc1cc(C)cc(NC(=O)Cc2ccc(OC(C)(C)C(=O)[O-])cc2)c1

$$$$
1G9V_ligand_con15
     RDKit          3D

 47 48  0  0  0  0  0  0  0  0999 V2000
    5.3939   -2.1540    0.2124 C   0  0  0  0  0  0  0  0  0  0  0  0
    4.9784   -0.9680   -0.3953 C   0  0  0  0  0  0  0  0  0  0  0  0
    4.4048   -0.9904   -1.6735 C   0  0  0  0  0  0  0  0  0  0  0  0
    3.7262    0.2413   -2.2199 C   0  0  0  0  0  0  0  0  0  0  0  0
    2.2082    0.3078   -2.0111 C   0  0  0  0  0  0  0  0  0  0  0  0
    1.5578    1.1303   -2.6600 O   0  0  0  0  0  0  0  0  0  0  0  0
    1.6940   -0.5553   -1.0608 N   0  0  0  0  0  0  0  0  0  0  0  0
    0.3604   -0.6909   -0.6254 C   0  0  0  0  0  0  0  0  0  0  0  0
   -0.6997    0.0992   -1.0718 C   0  0  0  0  0  0  0  0  0  0  0  0
   -1.9995   -0.0981   -0.5767 C   0  0  0  0  0  0  0  0  0  0  0  0
   -3.1196    0.7976   -1.0142 C   0  0  0  0  0  0  0  0  0  0  0  0
   -2.2266   -1.0906    0.3859 C   0  0  0  0  0  0  0  0  0  0  0  0
   -1.1774   -1.8989    0.8360 C   0  0  0  0  0  0  0  0  0  0  0  0
   -1.3977   -2.9403    1.8940 C   0  0  0  0  0  0  0  0  0  0  0  0
    0.1122   -1.6847    0.3318 C   0  0  0  0  0  0  0  0  0  0  0  0
    4.3345   -2.2032   -2.3702 C   0  0  0  0  0  0  0  0  0  0  0  0
    4.7539   -3.3842   -1.7572 C   0  0  0  0  0  0  0  0  0  0  0  0
    5.2275   -3.3699   -0.4441 C   0  0  0  0  0  0  0  0  0  0  0  0
    5.4928   -4.5953    0.0948 O   0  0  0  0  0  0  0  0  0  0  0  0
    5.1303   -4.8396    1.4914 C   0  0  0  0  0  0  0  0  0  0  0  0
    3.8830   -4.0267    2.0065 C   0  0  0  0  0  0  0  0  0  0  0  0
    4.0929   -3.3115    3.0350 O   0  0  0  0  0  0  0  0  0  0  0  0
    2.7989   -4.1611    1.3616 O   0  0  0  0  0  1  0  0  0  0  0  0
    4.6622   -6.3032    1.5403 C   0  0  0  0  0  0  0  0  0  0  0  0
    6.3947   -4.7120    2.3491 C   0  0  0  0  0  0  0  0  0  0  0  0
    5.7783   -2.1093    1.2258 H   0  0  0  0  0  0  0  0  0  0  0  0
    5.0426   -0.0426    0.1726 H   0  0  0  0  0  0  0  0  0  0  0  0
    3.9214    0.3068   -3.3008 H   0  0  0  0  0  0  0  0  0  0  0  0
    4.1625    1.1417   -1.7648 H   0  0  0  0  0  0  0  0  0  0  0  0
    2.3379   -1.2077   -0.6134 H   0  0  0  0  0  0  0  0  0  0  0  0
   -0.5355    0.8883   -1.7987 H   0  0  0  0  0  0  0  0  0  0  0  0
   -2.9347    1.1996   -2.0163 H   0  0  0  0  0  0  0  0  0  0  0  0
   -3.2205    1.6314   -0.3124 H   0  0  0  0  0  0  0  0  0  0  0  0
   -4.0654    0.2449   -1.0526 H   0  0  0  0  0  0  0  0  0  0  0  0
   -3.2246   -1.2307    0.7945 H   0  0  0  0  0  0  0  0  0  0  0  0
   -2.4234   -3.3260    1.8564 H   0  0  0  0  0  0  0  0  0  0  0  0
   -1.2160   -2.5083    2.8856 H   0  0  0  0  0  0  0  0  0  0  0  0
   -0.7233   -3.7911    1.7455 H   0  0  0  0  0  0  0  0  0  0  0  0
    0.9307   -2.3087    0.7020 H   0  0  0  0  0  0  0  0  0  0  0  0
    3.8925   -2.2504   -3.3631 H   0  0  0  0  0  0  0  0  0  0  0  0
    4.6461   -4.3342   -2.2757 H   0  0  0  0  0  0  0  0  0  0  0  0
    4.3535   -6.5994    2.5529 H   0  0  0  0  0  0  0  0  0  0  0  0
    5.4667   -6.9771    1.2142 H   0  0  0  0  0  0  0  0  0  0  0  0
    3.8196   -6.4836    0.8563 H   0  0  0  0  0  0  0  0  0  0  0  0
    6.2114   -5.0031    3.3901 H   0  0  0  0  0  0  0  0  0  0  0  0
    6.7850   -3.6905    2.3539 H   0  0  0  0  0  0  0  0  0  0  0  0
    7.2004   -5.3411    1.9512 H   0  0  0  0  0  0  0  0  0  0  0  0
 26  1  1  0
  1  2  2  0
  2 27  1  0
  2  3  1  0
  3  4  1  0
  4 28  1  0
  4 29  1  0
  4  5  1  0
  5  6  2  0
  5  7  1  0
  7 30  1  0
  7  8  1  0
  8  9  2  0
  9 31  1  0
  9 10  1  0
 10 11  1  0
 11 32  1  0
 11 33  1  0
 11 34  1  0
 10 12  2  0
 12 35  1  0
 12 13  1  0
 13 14  1  0
 14 36  1  0
 14 37  1  0
 14 38  1  0
  8 15  1  0
 13 15  2  0
 15 39  1  0
  3 16  2  0
 16 40  1  0
 16 17  1  0
 17 41  1  0
  1 18  1  0
 17 18  2  0
 18 19  1  0
 19 20  1  0
 20 21  1  0
 21 22  2  0
 21 23  1  0
 20 24  1  0
 24 42  1  0
 24 43  1  0
 24 44  1  0
 20 25  1  0
 25 45  1  0
 25 46  1  0
 25 47  1  0
M  CHG  1  23  -1
M  END
>  <conformer_energy>  (1) 
102.01000000000001

>  <ligand_smiles>  (1) 
Cc1cc(C)cc(NC(=O)Cc2ccc(OC(C)(C)C(=O)[O-])cc2)c1

>  <ligand_conf_name>  (1) 
MOL_0_isomer_0_conf_0

>  <ligand_molecule_name>  (1) 
MOL_0_isomer_0

>  <SMILES>  (1) 
Cc1cc(C)cc(NC(=O)Cc2ccc(OC(C)(C)C(=O)[O-])cc2)c1

$$$$
1G9V_ligand_con16
     RDKit          3D

 47 48  0  0  0  0  0  0  0  0999 V2000
    5.7390   -0.4647   -2.2213 C   0  0  0  0  0  0  0  0  0  0  0  0
    5.1277    0.4783   -1.3875 C   0  0  0  0  0  0  0  0  0  0  0  0
    4.2963    1.4757   -1.9230 C   0  0  0  0  0  0  0  0  0  0  0  0
    3.5705    2.4359   -1.0130 C   0  0  0  0  0  0  0  0  0  0  0  0
    2.0485    2.3827   -1.1275 C   0  0  0  0  0  0  0  0  0  0  0  0
    1.3936    3.4224   -1.1000 O   0  0  0  0  0  0  0  0  0  0  0  0
    1.5405    1.0963   -1.1675 N   0  0  0  0  0  0  0  0  0  0  0  0
    0.1957    0.6992   -1.2849 C   0  0  0  0  0  0  0  0  0  0  0  0
   -0.8718    1.5840   -1.4576 C   0  0  0  0  0  0  0  0  0  0  0  0
   -2.1897    1.1071   -1.5499 C   0  0  0  0  0  0  0  0  0  0  0  0
   -3.3289    2.0644   -1.7445 C   0  0  0  0  0  0  0  0  0  0  0  0
   -2.4292   -0.2744   -1.5022 C   0  0  0  0  0  0  0  0  0  0  0  0
   -1.3696   -1.1764   -1.3547 C   0  0  0  0  0  0  0  0  0  0  0  0
   -1.6248   -2.6514   -1.2966 C   0  0  0  0  0  0  0  0  0  0  0  0
   -0.0645   -0.6789   -1.2272 C   0  0  0  0  0  0  0  0  0  0  0  0
    4.1172    1.5327   -3.3089 C   0  0  0  0  0  0  0  0  0  0  0  0
    4.7302    0.5849   -4.1307 C   0  0  0  0  0  0  0  0  0  0  0  0
    5.5419   -0.4226   -3.5974 C   0  0  0  0  0  0  0  0  0  0  0  0
    6.0467   -1.2769   -4.5310 O   0  0  0  0  0  0  0  0  0  0  0  0
    7.0080   -2.3126   -4.1978 C   0  0  0  0  0  0  0  0  0  0  0  0
    6.4360   -3.3818   -3.1975 C   0  0  0  0  0  0  0  0  0  0  0  0
    7.1403   -3.5833   -2.1624 O   0  0  0  0  0  0  0  0  0  0  0  0
    5.3471   -3.9465   -3.5162 O   0  0  0  0  0  1  0  0  0  0  0  0
    7.2026   -3.1063   -5.5108 C   0  0  0  0  0  0  0  0  0  0  0  0
    8.3576   -1.6926   -3.8273 C   0  0  0  0  0  0  0  0  0  0  0  0
    6.3433   -1.2362   -1.7547 H   0  0  0  0  0  0  0  0  0  0  0  0
    5.2946    0.4014   -0.3148 H   0  0  0  0  0  0  0  0  0  0  0  0
    3.9054    3.4547   -1.2381 H   0  0  0  0  0  0  0  0  0  0  0  0
    3.8243    2.2363    0.0369 H   0  0  0  0  0  0  0  0  0  0  0  0
    2.2195    0.3413   -1.0923 H   0  0  0  0  0  0  0  0  0  0  0  0
   -0.7014    2.6541   -1.5232 H   0  0  0  0  0  0  0  0  0  0  0  0
   -3.6134    2.1030   -2.7999 H   0  0  0  0  0  0  0  0  0  0  0  0
   -3.0634    3.0764   -1.4169 H   0  0  0  0  0  0  0  0  0  0  0  0
   -4.1961    1.7511   -1.1587 H   0  0  0  0  0  0  0  0  0  0  0  0
   -3.4471   -0.6440   -1.5886 H   0  0  0  0  0  0  0  0  0  0  0  0
   -2.4929   -2.9192   -1.9058 H   0  0  0  0  0  0  0  0  0  0  0  0
   -1.8113   -2.9665   -0.2666 H   0  0  0  0  0  0  0  0  0  0  0  0
   -0.7698   -3.2113   -1.6895 H   0  0  0  0  0  0  0  0  0  0  0  0
    0.7568   -1.3831   -1.0949 H   0  0  0  0  0  0  0  0  0  0  0  0
    3.4770    2.2901   -3.7599 H   0  0  0  0  0  0  0  0  0  0  0  0
    4.5581    0.6100   -5.2061 H   0  0  0  0  0  0  0  0  0  0  0  0
    7.8602   -3.9744   -5.3718 H   0  0  0  0  0  0  0  0  0  0  0  0
    7.6370   -2.4633   -6.2912 H   0  0  0  0  0  0  0  0  0  0  0  0
    6.2484   -3.4623   -5.9187 H   0  0  0  0  0  0  0  0  0  0  0  0
    9.1514   -2.4502   -3.8134 H   0  0  0  0  0  0  0  0  0  0  0  0
    8.3411   -1.2242   -2.8364 H   0  0  0  0  0  0  0  0  0  0  0  0
    8.6386   -0.9054   -4.5433 H   0  0  0  0  0  0  0  0  0  0  0  0
 26  1  1  0
  1  2  2  0
  2 27  1  0
  2  3  1  0
  3  4  1  0
  4 28  1  0
  4 29  1  0
  4  5  1  0
  5  6  2  0
  5  7  1  0
  7 30  1  0
  7  8  1  0
  8  9  2  0
  9 31  1  0
  9 10  1  0
 10 11  1  0
 11 32  1  0
 11 33  1  0
 11 34  1  0
 10 12  2  0
 12 35  1  0
 12 13  1  0
 13 14  1  0
 14 36  1  0
 14 37  1  0
 14 38  1  0
  8 15  1  0
 13 15  2  0
 15 39  1  0
  3 16  2  0
 16 40  1  0
 16 17  1  0
 17 41  1  0
  1 18  1  0
 17 18  2  0
 18 19  1  0
 19 20  1  0
 20 21  1  0
 21 22  2  0
 21 23  1  0
 20 24  1  0
 24 42  1  0
 24 43  1  0
 24 44  1  0
 20 25  1  0
 25 45  1  0
 25 46  1  0
 25 47  1  0
M  CHG  1  23  -1
M  END
>  <conformer_energy>  (1) 
102.01000000000001

>  <ligand_smiles>  (1) 
Cc1cc(C)cc(NC(=O)Cc2ccc(OC(C)(C)C(=O)[O-])cc2)c1

>  <ligand_conf_name>  (1) 
MOL_0_isomer_0_conf_0

>  <ligand_molecule_name>  (1) 
MOL_0_isomer_0

>  <SMILES>  (1) 
Cc1cc(C)cc(NC(=O)Cc2ccc(OC(C)(C)C(=O)[O-])cc2)c1

$$$$
1G9V_ligand_con17
     RDKit          3D

 47 48  0  0  0  0  0  0  0  0999 V2000
    5.3172    2.8249   -1.3869 C   0  0  0  0  0  0  0  0  0  0  0  0
    4.8586    1.7528   -2.1536 C   0  0  0  0  0  0  0  0  0  0  0  0
    4.5382    0.5331   -1.5447 C   0  0  0  0  0  0  0  0  0  0  0  0
    3.8139   -0.5346   -2.3258 C   0  0  0  0  0  0  0  0  0  0  0  0
    2.3091   -0.6285   -2.0577 C   0  0  0  0  0  0  0  0  0  0  0  0
    1.7250   -1.6849   -2.3044 O   0  0  0  0  0  0  0  0  0  0  0  0
    1.7167    0.5336   -1.5977 N   0  0  0  0  0  0  0  0  0  0  0  0
    0.3581    0.7769   -1.3162 C   0  0  0  0  0  0  0  0  0  0  0  0
   -0.6660   -0.1481   -1.5230 C   0  0  0  0  0  0  0  0  0  0  0  0
   -1.9990    0.1765   -1.2227 C   0  0  0  0  0  0  0  0  0  0  0  0
   -3.0782   -0.8420   -1.4430 C   0  0  0  0  0  0  0  0  0  0  0  0
   -2.2987    1.4445   -0.7095 C   0  0  0  0  0  0  0  0  0  0  0  0
   -1.2856    2.3903   -0.5135 C   0  0  0  0  0  0  0  0  0  0  0  0
   -1.5916    3.7418    0.0589 C   0  0  0  0  0  0  0  0  0  0  0  0
    0.0395    2.0434   -0.8091 C   0  0  0  0  0  0  0  0  0  0  0  0
    4.7620    0.3745   -0.1713 C   0  0  0  0  0  0  0  0  0  0  0  0
    5.2200    1.4508    0.5882 C   0  0  0  0  0  0  0  0  0  0  0  0
    5.4468    2.6921   -0.0077 C   0  0  0  0  0  0  0  0  0  0  0  0
    5.7799    3.6952    0.8534 O   0  0  0  0  0  0  0  0  0  0  0  0
    5.2895    5.0470    0.6000 C   0  0  0  0  0  0  0  0  0  0  0  0
    3.8723    5.1183   -0.0827 C   0  0  0  0  0  0  0  0  0  0  0  0
    3.8261    5.7932   -1.1566 O   0  0  0  0  0  0  0  0  0  0  0  0
    2.9200    4.5141    0.4942 O   0  0  0  0  0  1  0  0  0  0  0  0
    5.0578    5.6589    1.9923 C   0  0  0  0  0  0  0  0  0  0  0  0
    6.3966    5.8489   -0.0900 C   0  0  0  0  0  0  0  0  0  0  0  0
    5.5007    3.7713   -1.8839 H   0  0  0  0  0  0  0  0  0  0  0  0
    4.6880    1.9123   -3.2159 H   0  0  0  0  0  0  0  0  0  0  0  0
    4.2644   -1.5080   -2.0950 H   0  0  0  0  0  0  0  0  0  0  0  0
    3.9444   -0.3709   -3.4013 H   0  0  0  0  0  0  0  0  0  0  0  0
    2.3253    1.3250   -1.3979 H   0  0  0  0  0  0  0  0  0  0  0  0
   -0.4524   -1.1357   -1.9200 H   0  0  0  0  0  0  0  0  0  0  0  0
   -3.0818   -1.1699   -2.4869 H   0  0  0  0  0  0  0  0  0  0  0  0
   -4.0675   -0.4323   -1.2197 H   0  0  0  0  0  0  0  0  0  0  0  0
   -2.9164   -1.7078   -0.7940 H   0  0  0  0  0  0  0  0  0  0  0  0
   -3.3263    1.7017   -0.4650 H   0  0  0  0  0  0  0  0  0  0  0  0
   -2.6112    4.0511   -0.1944 H   0  0  0  0  0  0  0  0  0  0  0  0
   -0.9125    4.5006   -0.3432 H   0  0  0  0  0  0  0  0  0  0  0  0
   -1.4920    3.7184    1.1485 H   0  0  0  0  0  0  0  0  0  0  0  0
    0.8260    2.7813   -0.6432 H   0  0  0  0  0  0  0  0  0  0  0  0
    4.5145   -0.5588    0.3286 H   0  0  0  0  0  0  0  0  0  0  0  0
    5.3320    1.3496    1.6645 H   0  0  0  0  0  0  0  0  0  0  0  0
    4.6847    6.6876    1.9277 H   0  0  0  0  0  0  0  0  0  0  0  0
    5.9893    5.6654    2.5726 H   0  0  0  0  0  0  0  0  0  0  0  0
    4.3411    5.0711    2.5802 H   0  0  0  0  0  0  0  0  0  0  0  0
    6.1261    6.9061   -0.1908 H   0  0  0  0  0  0  0  0  0  0  0  0
    6.6157    5.4673   -1.0900 H   0  0  0  0  0  0  0  0  0  0  0  0
    7.3345    5.7834    0.4757 H   0  0  0  0  0  0  0  0  0  0  0  0
 26  1  1  0
  1  2  2  0
  2 27  1  0
  2  3  1  0
  3  4  1  0
  4 28  1  0
  4 29  1  0
  4  5  1  0
  5  6  2  0
  5  7  1  0
  7 30  1  0
  7  8  1  0
  8  9  2  0
  9 31  1  0
  9 10  1  0
 10 11  1  0
 11 32  1  0
 11 33  1  0
 11 34  1  0
 10 12  2  0
 12 35  1  0
 12 13  1  0
 13 14  1  0
 14 36  1  0
 14 37  1  0
 14 38  1  0
  8 15  1  0
 13 15  2  0
 15 39  1  0
  3 16  2  0
 16 40  1  0
 16 17  1  0
 17 41  1  0
  1 18  1  0
 17 18  2  0
 18 19  1  0
 19 20  1  0
 20 21  1  0
 21 22  2  0
 21 23  1  0
 20 24  1  0
 24 42  1  0
 24 43  1  0
 24 44  1  0
 20 25  1  0
 25 45  1  0
 25 46  1  0
 25 47  1  0
M  CHG  1  23  -1
M  END
>  <conformer_energy>  (1) 
102.01000000000001

>  <ligand_smiles>  (1) 
Cc1cc(C)cc(NC(=O)Cc2ccc(OC(C)(C)C(=O)[O-])cc2)c1

>  <ligand_conf_name>  (1) 
MOL_0_isomer_0_conf_0

>  <ligand_molecule_name>  (1) 
MOL_0_isomer_0

>  <SMILES>  (1) 
Cc1cc(C)cc(NC(=O)Cc2ccc(OC(C)(C)C(=O)[O-])cc2)c1

$$$$
1G9V_ligand_con18
     RDKit          3D

 47 48  0  0  0  0  0  0  0  0999 V2000
    5.0905    2.6495    0.6715 C   0  0  0  0  0  0  0  0  0  0  0  0
    4.7115    1.3776    0.2280 C   0  0  0  0  0  0  0  0  0  0  0  0
    4.2261    1.1887   -1.0720 C   0  0  0  0  0  0  0  0  0  0  0  0
    3.7576   -0.1726   -1.5247 C   0  0  0  0  0  0  0  0  0  0  0  0
    2.2475   -0.3072   -1.7026 C   0  0  0  0  0  0  0  0  0  0  0  0
    1.7986   -1.0087   -2.6081 O   0  0  0  0  0  0  0  0  0  0  0  0
    1.5018    0.3478   -0.7374 N   0  0  0  0  0  0  0  0  0  0  0  0
    0.1013    0.3678   -0.5817 C   0  0  0  0  0  0  0  0  0  0  0  0
   -0.7869   -0.3520   -1.3818 C   0  0  0  0  0  0  0  0  0  0  0  0
   -2.1717   -0.2819   -1.1617 C   0  0  0  0  0  0  0  0  0  0  0  0
   -3.1089   -1.0939   -2.0064 C   0  0  0  0  0  0  0  0  0  0  0  0
   -2.6623    0.5045   -0.1128 C   0  0  0  0  0  0  0  0  0  0  0  0
   -1.7889    1.2451    0.6900 C   0  0  0  0  0  0  0  0  0  0  0  0
   -2.3128    2.0705    1.8276 C   0  0  0  0  0  0  0  0  0  0  0  0
   -0.4098    1.1612    0.4543 C   0  0  0  0  0  0  0  0  0  0  0  0
    4.1503    2.2905   -1.9300 C   0  0  0  0  0  0  0  0  0  0  0  0
    4.5385    3.5554   -1.4816 C   0  0  0  0  0  0  0  0  0  0  0  0
    4.9933    3.7492   -0.1741 C   0  0  0  0  0  0  0  0  0  0  0  0
    5.3214    5.0392    0.1214 O   0  0  0  0  0  0  0  0  0  0  0  0
    5.3961    5.5079    1.4954 C   0  0  0  0  0  0  0  0  0  0  0  0
    6.6043    4.9046    2.2880 C   0  0  0  0  0  0  0  0  0  0  0  0
    6.3070    4.3801    3.4057 O   0  0  0  0  0  0  0  0  0  0  0  0
    7.7466    4.9978    1.7519 O   0  0  0  0  0  1  0  0  0  0  0  0
    5.7538    7.0004    1.3816 C   0  0  0  0  0  0  0  0  0  0  0  0
    4.0312    5.4047    2.1841 C   0  0  0  0  0  0  0  0  0  0  0  0
    5.4720    2.7392    1.6834 H   0  0  0  0  0  0  0  0  0  0  0  0
    4.8063    0.5421    0.9184 H   0  0  0  0  0  0  0  0  0  0  0  0
    4.0733   -0.9441   -0.8119 H   0  0  0  0  0  0  0  0  0  0  0  0
    4.2417   -0.4080   -2.4806 H   0  0  0  0  0  0  0  0  0  0  0  0
    2.0209    0.9194   -0.0788 H   0  0  0  0  0  0  0  0  0  0  0  0
   -0.4252   -0.9840   -2.1869 H   0  0  0  0  0  0  0  0  0  0  0  0
   -2.7313   -1.1857   -3.0302 H   0  0  0  0  0  0  0  0  0  0  0  0
   -4.0938   -0.6189   -2.0660 H   0  0  0  0  0  0  0  0  0  0  0  0
   -3.2250   -2.0948   -1.5795 H   0  0  0  0  0  0  0  0  0  0  0  0
   -3.7329    0.5426    0.0773 H   0  0  0  0  0  0  0  0  0  0  0  0
   -3.3239    2.4334    1.6148 H   0  0  0  0  0  0  0  0  0  0  0  0
   -1.6817    2.9496    1.9950 H   0  0  0  0  0  0  0  0  0  0  0  0
   -2.3378    1.4721    2.7435 H   0  0  0  0  0  0  0  0  0  0  0  0
    0.2682    1.7269    1.0909 H   0  0  0  0  0  0  0  0  0  0  0  0
    3.7869    2.1787   -2.9487 H   0  0  0  0  0  0  0  0  0  0  0  0
    4.4811    4.4085   -2.1530 H   0  0  0  0  0  0  0  0  0  0  0  0
    5.9036    7.4616    2.3642 H   0  0  0  0  0  0  0  0  0  0  0  0
    4.9595    7.5497    0.8617 H   0  0  0  0  0  0  0  0  0  0  0  0
    6.6620    7.1551    0.7867 H   0  0  0  0  0  0  0  0  0  0  0  0
    4.0291    5.9226    3.1496 H   0  0  0  0  0  0  0  0  0  0  0  0
    3.7457    4.3661    2.3768 H   0  0  0  0  0  0  0  0  0  0  0  0
    3.2425    5.8356    1.5570 H   0  0  0  0  0  0  0  0  0  0  0  0
 26  1  1  0
  1  2  2  0
  2 27  1  0
  2  3  1  0
  3  4  1  0
  4 28  1  0
  4 29  1  0
  4  5  1  0
  5  6  2  0
  5  7  1  0
  7 30  1  0
  7  8  1  0
  8  9  2  0
  9 31  1  0
  9 10  1  0
 10 11  1  0
 11 32  1  0
 11 33  1  0
 11 34  1  0
 10 12  2  0
 12 35  1  0
 12 13  1  0
 13 14  1  0
 14 36  1  0
 14 37  1  0
 14 38  1  0
  8 15  1  0
 13 15  2  0
 15 39  1  0
  3 16  2  0
 16 40  1  0
 16 17  1  0
 17 41  1  0
  1 18  1  0
 17 18  2  0
 18 19  1  0
 19 20  1  0
 20 21  1  0
 21 22  2  0
 21 23  1  0
 20 24  1  0
 24 42  1  0
 24 43  1  0
 24 44  1  0
 20 25  1  0
 25 45  1  0
 25 46  1  0
 25 47  1  0
M  CHG  1  23  -1
M  END
>  <conformer_energy>  (1) 
102.01000000000001

>  <ligand_smiles>  (1) 
Cc1cc(C)cc(NC(=O)Cc2ccc(OC(C)(C)C(=O)[O-])cc2)c1

>  <ligand_conf_name>  (1) 
MOL_0_isomer_0_conf_0

>  <ligand_molecule_name>  (1) 
MOL_0_isomer_0

>  <SMILES>  (1) 
Cc1cc(C)cc(NC(=O)Cc2ccc(OC(C)(C)C(=O)[O-])cc2)c1

$$$$
1G9V_ligand_con19
     RDKit          3D

 47 48  0  0  0  0  0  0  0  0999 V2000
    4.1502   -1.2534    2.6527 C   0  0  0  0  0  0  0  0  0  0  0  0
    3.8673   -1.0929    1.2951 C   0  0  0  0  0  0  0  0  0  0  0  0
    3.9522    0.1745    0.6983 C   0  0  0  0  0  0  0  0  0  0  0  0
    3.5982    0.3585   -0.7585 C   0  0  0  0  0  0  0  0  0  0  0  0
    2.1268    0.1451   -1.1042 C   0  0  0  0  0  0  0  0  0  0  0  0
    1.8214   -0.3342   -2.1960 O   0  0  0  0  0  0  0  0  0  0  0  0
    1.2425    0.6040   -0.1427 N   0  0  0  0  0  0  0  0  0  0  0  0
   -0.1667    0.6093   -0.1865 C   0  0  0  0  0  0  0  0  0  0  0  0
   -0.9196    0.1564   -1.2712 C   0  0  0  0  0  0  0  0  0  0  0  0
   -2.3226    0.1979   -1.2399 C   0  0  0  0  0  0  0  0  0  0  0  0
   -3.1157   -0.3315   -2.3984 C   0  0  0  0  0  0  0  0  0  0  0  0
   -2.9710    0.6833   -0.0979 C   0  0  0  0  0  0  0  0  0  0  0  0
   -2.2336    1.1566    0.9918 C   0  0  0  0  0  0  0  0  0  0  0  0
   -2.9345    1.6568    2.2194 C   0  0  0  0  0  0  0  0  0  0  0  0
   -0.8338    1.1048    0.9420 C   0  0  0  0  0  0  0  0  0  0  0  0
    4.3284    1.2766    1.4814 C   0  0  0  0  0  0  0  0  0  0  0  0
    4.6070    1.1117    2.8378 C   0  0  0  0  0  0  0  0  0  0  0  0
    4.5412   -0.1552    3.4110 C   0  0  0  0  0  0  0  0  0  0  0  0
    4.7536   -0.2778    4.7500 O   0  0  0  0  0  0  0  0  0  0  0  0
    6.0933   -0.6609    5.1685 C   0  0  0  0  0  0  0  0  0  0  0  0
    6.3475    0.0303    6.5654 C   0  0  0  0  0  0  0  0  0  0  0  0
    6.5094    1.2897    6.5362 O   0  0  0  0  0  0  0  0  0  0  0  0
    6.3772   -0.7360    7.5755 O   0  0  0  0  0  1  0  0  0  0  0  0
    6.1476   -2.1864    5.3044 C   0  0  0  0  0  0  0  0  0  0  0  0
    7.2454   -0.1747    4.2714 C   0  0  0  0  0  0  0  0  0  0  0  0
    4.0542   -2.2277    3.1218 H   0  0  0  0  0  0  0  0  0  0  0  0
    3.5648   -1.9609    0.7131 H   0  0  0  0  0  0  0  0  0  0  0  0
    4.1987   -0.3425   -1.3522 H   0  0  0  0  0  0  0  0  0  0  0  0
    3.8666    1.3685   -1.0929 H   0  0  0  0  0  0  0  0  0  0  0  0
    1.6515    0.9496    0.7192 H   0  0  0  0  0  0  0  0  0  0  0  0
   -0.4370   -0.2392   -2.1600 H   0  0  0  0  0  0  0  0  0  0  0  0
   -2.5968   -0.1413   -3.3448 H   0  0  0  0  0  0  0  0  0  0  0  0
   -4.0930    0.1604   -2.4601 H   0  0  0  0  0  0  0  0  0  0  0  0
   -3.2697   -1.4099   -2.2874 H   0  0  0  0  0  0  0  0  0  0  0  0
   -4.0583    0.6942   -0.0577 H   0  0  0  0  0  0  0  0  0  0  0  0
   -3.8299    2.2257    1.9473 H   0  0  0  0  0  0  0  0  0  0  0  0
   -2.2885    2.3255    2.7981 H   0  0  0  0  0  0  0  0  0  0  0  0
   -3.2251    0.8144    2.8544 H   0  0  0  0  0  0  0  0  0  0  0  0
   -0.2633    1.4535    1.8007 H   0  0  0  0  0  0  0  0  0  0  0  0
    4.4014    2.2723    1.0506 H   0  0  0  0  0  0  0  0  0  0  0  0
    4.8871    1.9606    3.4585 H   0  0  0  0  0  0  0  0  0  0  0  0
    7.0747   -2.5209    5.7837 H   0  0  0  0  0  0  0  0  0  0  0  0
    6.0914   -2.6745    4.3256 H   0  0  0  0  0  0  0  0  0  0  0  0
    5.2991   -2.5605    5.8897 H   0  0  0  0  0  0  0  0  0  0  0  0
    8.2197   -0.3905    4.7259 H   0  0  0  0  0  0  0  0  0  0  0  0
    7.1963    0.9040    4.0853 H   0  0  0  0  0  0  0  0  0  0  0  0
    7.2262   -0.6667    3.2923 H   0  0  0  0  0  0  0  0  0  0  0  0
 26  1  1  0
  1  2  2  0
  2 27  1  0
  2  3  1  0
  3  4  1  0
  4 28  1  0
  4 29  1  0
  4  5  1  0
  5  6  2  0
  5  7  1  0
  7 30  1  0
  7  8  1  0
  8  9  2  0
  9 31  1  0
  9 10  1  0
 10 11  1  0
 11 32  1  0
 11 33  1  0
 11 34  1  0
 10 12  2  0
 12 35  1  0
 12 13  1  0
 13 14  1  0
 14 36  1  0
 14 37  1  0
 14 38  1  0
  8 15  1  0
 13 15  2  0
 15 39  1  0
  3 16  2  0
 16 40  1  0
 16 17  1  0
 17 41  1  0
  1 18  1  0
 17 18  2  0
 18 19  1  0
 19 20  1  0
 20 21  1  0
 21 22  2  0
 21 23  1  0
 20 24  1  0
 24 42  1  0
 24 43  1  0
 24 44  1  0
 20 25  1  0
 25 45  1  0
 25 46  1  0
 25 47  1  0
M  CHG  1  23  -1
M  END
>  <conformer_energy>  (1) 
102.01000000000001

>  <ligand_smiles>  (1) 
Cc1cc(C)cc(NC(=O)Cc2ccc(OC(C)(C)C(=O)[O-])cc2)c1

>  <ligand_conf_name>  (1) 
MOL_0_isomer_0_conf_0

>  <ligand_molecule_name>  (1) 
MOL_0_isomer_0

>  <SMILES>  (1) 
Cc1cc(C)cc(NC(=O)Cc2ccc(OC(C)(C)C(=O)[O-])cc2)c1

$$$$
1G9V_ligand_con20
     RDKit          3D

 47 48  0  0  0  0  0  0  0  0999 V2000
    4.1707   -1.2151    2.6232 C   0  0  0  0  0  0  0  0  0  0  0  0
    3.8868   -1.0060    1.2727 C   0  0  0  0  0  0  0  0  0  0  0  0
    3.9558    0.2843    0.7248 C   0  0  0  0  0  0  0  0  0  0  0  0
    3.6009    0.5183   -0.7244 C   0  0  0  0  0  0  0  0  0  0  0  0
    2.1423    0.2531   -1.0859 C   0  0  0  0  0  0  0  0  0  0  0  0
    1.8639   -0.2285   -2.1835 O   0  0  0  0  0  0  0  0  0  0  0  0
    1.2351    0.6732   -0.1283 N   0  0  0  0  0  0  0  0  0  0  0  0
   -0.1725    0.6338   -0.1857 C   0  0  0  0  0  0  0  0  0  0  0  0
   -0.9000    0.1723   -1.2837 C   0  0  0  0  0  0  0  0  0  0  0  0
   -2.3035    0.1705   -1.2676 C   0  0  0  0  0  0  0  0  0  0  0  0
   -3.0723   -0.3698   -2.4369 C   0  0  0  0  0  0  0  0  0  0  0  0
   -2.9777    0.6210   -0.1267 C   0  0  0  0  0  0  0  0  0  0  0  0
   -2.2663    1.0991    0.9796 C   0  0  0  0  0  0  0  0  0  0  0  0
   -2.9916    1.5527    2.2120 C   0  0  0  0  0  0  0  0  0  0  0  0
   -0.8655    1.0910    0.9437 C   0  0  0  0  0  0  0  0  0  0  0  0
    4.3220    1.3595    1.5485 C   0  0  0  0  0  0  0  0  0  0  0  0
    4.6030    1.1459    2.8977 C   0  0  0  0  0  0  0  0  0  0  0  0
    4.5476   -0.1418    3.4227 C   0  0  0  0  0  0  0  0  0  0  0  0
    4.7584   -0.3121    4.7561 O   0  0  0  0  0  0  0  0  0  0  0  0
    6.0980   -0.7035    5.1648 C   0  0  0  0  0  0  0  0  0  0  0  0
    6.3888    0.0276    6.5337 C   0  0  0  0  0  0  0  0  0  0  0  0
    6.3961   -0.7024    7.5710 O   0  0  0  0  0  0  0  0  0  0  0  0
    6.6005    1.2776    6.4575 O   0  0  0  0  0  1  0  0  0  0  0  0
    6.1140   -2.2243    5.3508 C   0  0  0  0  0  0  0  0  0  0  0  0
    7.2483   -0.2836    4.2319 C   0  0  0  0  0  0  0  0  0  0  0  0
    4.0867   -2.2073    3.0543 H   0  0  0  0  0  0  0  0  0  0  0  0
    3.5951   -1.8548    0.6577 H   0  0  0  0  0  0  0  0  0  0  0  0
    4.2343   -0.1271   -1.3442 H   0  0  0  0  0  0  0  0  0  0  0  0
    3.8234    1.5523   -1.0116 H   0  0  0  0  0  0  0  0  0  0  0  0
    1.6260    1.0215    0.7414 H   0  0  0  0  0  0  0  0  0  0  0  0
   -0.3961   -0.1982   -2.1701 H   0  0  0  0  0  0  0  0  0  0  0  0
   -2.4999   -0.2717   -3.3634 H   0  0  0  0  0  0  0  0  0  0  0  0
   -4.0087    0.1784   -2.5745 H   0  0  0  0  0  0  0  0  0  0  0  0
   -3.3011   -1.4272   -2.2765 H   0  0  0  0  0  0  0  0  0  0  0  0
   -4.0650    0.5978   -0.0996 H   0  0  0  0  0  0  0  0  0  0  0  0
   -3.9457    2.0215    1.9504 H   0  0  0  0  0  0  0  0  0  0  0  0
   -2.4068    2.2972    2.7627 H   0  0  0  0  0  0  0  0  0  0  0  0
   -3.1842    0.6999    2.8686 H   0  0  0  0  0  0  0  0  0  0  0  0
   -0.3153    1.4396    1.8149 H   0  0  0  0  0  0  0  0  0  0  0  0
    4.3863    2.3711    1.1557 H   0  0  0  0  0  0  0  0  0  0  0  0
    4.8770    1.9729    3.5501 H   0  0  0  0  0  0  0  0  0  0  0  0
    7.0432   -2.5682    5.8181 H   0  0  0  0  0  0  0  0  0  0  0  0
    6.0169   -2.7418    4.3893 H   0  0  0  0  0  0  0  0  0  0  0  0
    5.2708   -2.5573    5.9690 H   0  0  0  0  0  0  0  0  0  0  0  0
    8.2222   -0.5145    4.6784 H   0  0  0  0  0  0  0  0  0  0  0  0
    7.2324    0.7887    4.0086 H   0  0  0  0  0  0  0  0  0  0  0  0
    7.1974   -0.8088    3.2704 H   0  0  0  0  0  0  0  0  0  0  0  0
 26  1  1  0
  1  2  2  0
  2 27  1  0
  2  3  1  0
  3  4  1  0
  4 28  1  0
  4 29  1  0
  4  5  1  0
  5  6  2  0
  5  7  1  0
  7 30  1  0
  7  8  1  0
  8  9  2  0
  9 31  1  0
  9 10  1  0
 10 11  1  0
 11 32  1  0
 11 33  1  0
 11 34  1  0
 10 12  2  0
 12 35  1  0
 12 13  1  0
 13 14  1  0
 14 36  1  0
 14 37  1  0
 14 38  1  0
  8 15  1  0
 13 15  2  0
 15 39  1  0
  3 16  2  0
 16 40  1  0
 16 17  1  0
 17 41  1  0
  1 18  1  0
 17 18  2  0
 18 19  1  0
 19 20  1  0
 20 21  1  0
 21 22  2  0
 21 23  1  0
 20 24  1  0
 24 42  1  0
 24 43  1  0
 24 44  1  0
 20 25  1  0
 25 45  1  0
 25 46  1  0
 25 47  1  0
M  CHG  1  23  -1
M  END
>  <conformer_energy>  (1) 
102.01000000000001

>  <ligand_smiles>  (1) 
Cc1cc(C)cc(NC(=O)Cc2ccc(OC(C)(C)C(=O)[O-])cc2)c1

>  <ligand_conf_name>  (1) 
MOL_0_isomer_0_conf_0

>  <ligand_molecule_name>  (1) 
MOL_0_isomer_0

>  <SMILES>  (1) 
Cc1cc(C)cc(NC(=O)Cc2ccc(OC(C)(C)C(=O)[O-])cc2)c1

$$$$
1G9V_ligand_con21
     RDKit          3D

 47 48  0  0  0  0  0  0  0  0999 V2000
    4.5130    0.7354    2.1104 C   0  0  0  0  0  0  0  0  0  0  0  0
    4.1890    0.2076    0.8595 C   0  0  0  0  0  0  0  0  0  0  0  0
    3.8428   -1.1477    0.7339 C   0  0  0  0  0  0  0  0  0  0  0  0
    3.3432   -1.6885   -0.5874 C   0  0  0  0  0  0  0  0  0  0  0  0
    1.9666   -1.1707   -0.9966 C   0  0  0  0  0  0  0  0  0  0  0  0
    1.7261   -0.9527   -2.1796 O   0  0  0  0  0  0  0  0  0  0  0  0
    1.0674   -1.0619    0.0497 N   0  0  0  0  0  0  0  0  0  0  0  0
   -0.2751   -0.6324    0.0123 C   0  0  0  0  0  0  0  0  0  0  0  0
   -0.9429   -0.2422   -1.1480 C   0  0  0  0  0  0  0  0  0  0  0  0
   -2.2836    0.1738   -1.1003 C   0  0  0  0  0  0  0  0  0  0  0  0
   -2.9880    0.5700   -2.3656 C   0  0  0  0  0  0  0  0  0  0  0  0
   -2.9595    0.1767    0.1251 C   0  0  0  0  0  0  0  0  0  0  0  0
   -2.3006   -0.1956    1.3016 C   0  0  0  0  0  0  0  0  0  0  0  0
   -3.0278   -0.2171    2.6134 C   0  0  0  0  0  0  0  0  0  0  0  0
   -0.9627   -0.6039    1.2323 C   0  0  0  0  0  0  0  0  0  0  0  0
    3.8825   -1.9757    1.8678 C   0  0  0  0  0  0  0  0  0  0  0  0
    4.2026   -1.4422    3.1165 C   0  0  0  0  0  0  0  0  0  0  0  0
    4.4712   -0.0829    3.2379 C   0  0  0  0  0  0  0  0  0  0  0  0
    4.7453    0.4553    4.4586 O   0  0  0  0  0  0  0  0  0  0  0  0
    3.5912    0.8734    5.2484 C   0  0  0  0  0  0  0  0  0  0  0  0
    3.3467   -0.1377    6.4261 C   0  0  0  0  0  0  0  0  0  0  0  0
    3.0474   -1.3227    6.0966 O   0  0  0  0  0  0  0  0  0  0  0  0
    3.4199    0.3405    7.5998 O   0  0  0  0  0  1  0  0  0  0  0  0
    3.9741    2.2578    5.7873 C   0  0  0  0  0  0  0  0  0  0  0  0
    2.2408    0.9925    4.5124 C   0  0  0  0  0  0  0  0  0  0  0  0
    4.7605    1.7886    2.2185 H   0  0  0  0  0  0  0  0  0  0  0  0
    4.1751    0.8668   -0.0075 H   0  0  0  0  0  0  0  0  0  0  0  0
    3.2870   -2.7832   -0.5584 H   0  0  0  0  0  0  0  0  0  0  0  0
    4.0627   -1.4264   -1.3747 H   0  0  0  0  0  0  0  0  0  0  0  0
    1.4216   -1.2838    0.9753 H   0  0  0  0  0  0  0  0  0  0  0  0
   -0.4399   -0.2510   -2.1095 H   0  0  0  0  0  0  0  0  0  0  0  0
   -2.3451    1.2116   -2.9756 H   0  0  0  0  0  0  0  0  0  0  0  0
   -3.9028    1.1326   -2.1536 H   0  0  0  0  0  0  0  0  0  0  0  0
   -3.2550   -0.3202   -2.9415 H   0  0  0  0  0  0  0  0  0  0  0  0
   -4.0051    0.4760    0.1646 H   0  0  0  0  0  0  0  0  0  0  0  0
   -3.8481    0.5105    2.6227 H   0  0  0  0  0  0  0  0  0  0  0  0
   -2.3536    0.0390    3.4379 H   0  0  0  0  0  0  0  0  0  0  0  0
   -3.4415   -1.2131    2.7930 H   0  0  0  0  0  0  0  0  0  0  0  0
   -0.4576   -0.9021    2.1488 H   0  0  0  0  0  0  0  0  0  0  0  0
    3.6325   -3.0312    1.8020 H   0  0  0  0  0  0  0  0  0  0  0  0
    4.2023   -2.0727    4.0044 H   0  0  0  0  0  0  0  0  0  0  0  0
    3.1834    2.6927    6.4082 H   0  0  0  0  0  0  0  0  0  0  0  0
    4.1873    2.9474    4.9597 H   0  0  0  0  0  0  0  0  0  0  0  0
    4.8876    2.2079    6.3899 H   0  0  0  0  0  0  0  0  0  0  0  0
    1.4475    1.3259    5.1937 H   0  0  0  0  0  0  0  0  0  0  0  0
    1.9106    0.0371    4.0878 H   0  0  0  0  0  0  0  0  0  0  0  0
    2.2982    1.7155    3.6883 H   0  0  0  0  0  0  0  0  0  0  0  0
 26  1  1  0
  1  2  2  0
  2 27  1  0
  2  3  1  0
  3  4  1  0
  4 28  1  0
  4 29  1  0
  4  5  1  0
  5  6  2  0
  5  7  1  0
  7 30  1  0
  7  8  1  0
  8  9  2  0
  9 31  1  0
  9 10  1  0
 10 11  1  0
 11 32  1  0
 11 33  1  0
 11 34  1  0
 10 12  2  0
 12 35  1  0
 12 13  1  0
 13 14  1  0
 14 36  1  0
 14 37  1  0
 14 38  1  0
  8 15  1  0
 13 15  2  0
 15 39  1  0
  3 16  2  0
 16 40  1  0
 16 17  1  0
 17 41  1  0
  1 18  1  0
 17 18  2  0
 18 19  1  0
 19 20  1  0
 20 21  1  0
 21 22  2  0
 21 23  1  0
 20 24  1  0
 24 42  1  0
 24 43  1  0
 24 44  1  0
 20 25  1  0
 25 45  1  0
 25 46  1  0
 25 47  1  0
M  CHG  1  23  -1
M  END
>  <conformer_energy>  (1) 
102.01000000000001

>  <ligand_smiles>  (1) 
Cc1cc(C)cc(NC(=O)Cc2ccc(OC(C)(C)C(=O)[O-])cc2)c1

>  <ligand_conf_name>  (1) 
MOL_0_isomer_0_conf_0

>  <ligand_molecule_name>  (1) 
MOL_0_isomer_0

>  <SMILES>  (1) 
Cc1cc(C)cc(NC(=O)Cc2ccc(OC(C)(C)C(=O)[O-])cc2)c1

$$$$
1G9V_ligand_con22
     RDKit          3D

 47 48  0  0  0  0  0  0  0  0999 V2000
    4.3587    0.9107    2.1210 C   0  0  0  0  0  0  0  0  0  0  0  0
    4.0975    0.2922    0.8988 C   0  0  0  0  0  0  0  0  0  0  0  0
    3.9067   -1.0971    0.8359 C   0  0  0  0  0  0  0  0  0  0  0  0
    3.4561   -1.7495   -0.4503 C   0  0  0  0  0  0  0  0  0  0  0  0
    2.0822   -1.2951   -0.9352 C   0  0  0  0  0  0  0  0  0  0  0  0
    1.8720   -1.1610   -2.1371 O   0  0  0  0  0  0  0  0  0  0  0  0
    1.1535   -1.1355    0.0764 N   0  0  0  0  0  0  0  0  0  0  0  0
   -0.1860   -0.7143   -0.0251 C   0  0  0  0  0  0  0  0  0  0  0  0
   -0.8129   -0.3793   -1.2237 C   0  0  0  0  0  0  0  0  0  0  0  0
   -2.1527    0.0421   -1.2379 C   0  0  0  0  0  0  0  0  0  0  0  0
   -2.8212    0.3664   -2.5389 C   0  0  0  0  0  0  0  0  0  0  0  0
   -2.8732    0.0963   -0.0369 C   0  0  0  0  0  0  0  0  0  0  0  0
   -2.2567   -0.2248    1.1747 C   0  0  0  0  0  0  0  0  0  0  0  0
   -3.0359   -0.2040    2.4562 C   0  0  0  0  0  0  0  0  0  0  0  0
   -0.9155   -0.6321    1.1698 C   0  0  0  0  0  0  0  0  0  0  0  0
    4.0573   -1.8630    2.0011 C   0  0  0  0  0  0  0  0  0  0  0  0
    4.3217   -1.2401    3.2194 C   0  0  0  0  0  0  0  0  0  0  0  0
    4.4186    0.1453    3.2827 C   0  0  0  0  0  0  0  0  0  0  0  0
    4.6196    0.7794    4.4683 O   0  0  0  0  0  0  0  0  0  0  0  0
    3.4272    0.9760    5.3036 C   0  0  0  0  0  0  0  0  0  0  0  0
    3.3249   -0.1543    6.3994 C   0  0  0  0  0  0  0  0  0  0  0  0
    3.6817    0.1703    7.5762 O   0  0  0  0  0  0  0  0  0  0  0  0
    2.8487   -1.2699    6.0072 O   0  0  0  0  0  1  0  0  0  0  0  0
    3.6582    2.3472    5.9688 C   0  0  0  0  0  0  0  0  0  0  0  0
    2.0816    1.0351    4.5522 C   0  0  0  0  0  0  0  0  0  0  0  0
    4.4718    1.9908    2.1823 H   0  0  0  0  0  0  0  0  0  0  0  0
    3.9976    0.9037    0.0038 H   0  0  0  0  0  0  0  0  0  0  0  0
    3.4111   -2.8420   -0.3352 H   0  0  0  0  0  0  0  0  0  0  0  0
    4.1931   -1.5329   -1.2331 H   0  0  0  0  0  0  0  0  0  0  0  0
    1.4800   -1.3014    1.0220 H   0  0  0  0  0  0  0  0  0  0  0  0
   -0.2760   -0.4336   -2.1679 H   0  0  0  0  0  0  0  0  0  0  0  0
   -2.1182    0.8460   -3.2286 H   0  0  0  0  0  0  0  0  0  0  0  0
   -3.6569    1.0614   -2.3932 H   0  0  0  0  0  0  0  0  0  0  0  0
   -3.2003   -0.5528   -2.9985 H   0  0  0  0  0  0  0  0  0  0  0  0
   -3.9217    0.3885   -0.0451 H   0  0  0  0  0  0  0  0  0  0  0  0
   -3.8762    0.4978    2.3998 H   0  0  0  0  0  0  0  0  0  0  0  0
   -2.4063    0.1067    3.2886 H   0  0  0  0  0  0  0  0  0  0  0  0
   -3.4346   -1.2009    2.6653 H   0  0  0  0  0  0  0  0  0  0  0  0
   -0.4426   -0.8937    2.1139 H   0  0  0  0  0  0  0  0  0  0  0  0
    3.9324   -2.9435    1.9860 H   0  0  0  0  0  0  0  0  0  0  0  0
    4.4074   -1.8294    4.1281 H   0  0  0  0  0  0  0  0  0  0  0  0
    2.8838    2.5711    6.7147 H   0  0  0  0  0  0  0  0  0  0  0  0
    3.6654    3.1447    5.2056 H   0  0  0  0  0  0  0  0  0  0  0  0
    4.6354    2.3932    6.4667 H   0  0  0  0  0  0  0  0  0  0  0  0
    1.2450    1.2046    5.2469 H   0  0  0  0  0  0  0  0  0  0  0  0
    1.8602    0.1069    4.0152 H   0  0  0  0  0  0  0  0  0  0  0  0
    2.0842    1.8402    3.8198 H   0  0  0  0  0  0  0  0  0  0  0  0
 26  1  1  0
  1  2  2  0
  2 27  1  0
  2  3  1  0
  3  4  1  0
  4 28  1  0
  4 29  1  0
  4  5  1  0
  5  6  2  0
  5  7  1  0
  7 30  1  0
  7  8  1  0
  8  9  2  0
  9 31  1  0
  9 10  1  0
 10 11  1  0
 11 32  1  0
 11 33  1  0
 11 34  1  0
 10 12  2  0
 12 35  1  0
 12 13  1  0
 13 14  1  0
 14 36  1  0
 14 37  1  0
 14 38  1  0
  8 15  1  0
 13 15  2  0
 15 39  1  0
  3 16  2  0
 16 40  1  0
 16 17  1  0
 17 41  1  0
  1 18  1  0
 17 18  2  0
 18 19  1  0
 19 20  1  0
 20 21  1  0
 21 22  2  0
 21 23  1  0
 20 24  1  0
 24 42  1  0
 24 43  1  0
 24 44  1  0
 20 25  1  0
 25 45  1  0
 25 46  1  0
 25 47  1  0
M  CHG  1  23  -1
M  END
>  <conformer_energy>  (1) 
102.01000000000001

>  <ligand_smiles>  (1) 
Cc1cc(C)cc(NC(=O)Cc2ccc(OC(C)(C)C(=O)[O-])cc2)c1

>  <ligand_conf_name>  (1) 
MOL_0_isomer_0_conf_0

>  <ligand_molecule_name>  (1) 
MOL_0_isomer_0

>  <SMILES>  (1) 
Cc1cc(C)cc(NC(=O)Cc2ccc(OC(C)(C)C(=O)[O-])cc2)c1

$$$$
1G9V_ligand_con23
     RDKit          3D

 47 48  0  0  0  0  0  0  0  0999 V2000
    4.5866   -3.9589   -1.5162 C   0  0  0  0  0  0  0  0  0  0  0  0
    3.7622   -3.2723   -2.4050 C   0  0  0  0  0  0  0  0  0  0  0  0
    3.7535   -1.8691   -2.4166 C   0  0  0  0  0  0  0  0  0  0  0  0
    2.7548   -1.1153   -3.2625 C   0  0  0  0  0  0  0  0  0  0  0  0
    1.5407   -0.5692   -2.5103 C   0  0  0  0  0  0  0  0  0  0  0  0
    0.9412    0.4077   -2.9603 O   0  0  0  0  0  0  0  0  0  0  0  0
    1.1949   -1.2753   -1.3703 N   0  0  0  0  0  0  0  0  0  0  0  0
    0.1429   -1.0162   -0.4673 C   0  0  0  0  0  0  0  0  0  0  0  0
   -0.8042   -0.0066   -0.6302 C   0  0  0  0  0  0  0  0  0  0  0  0
   -1.8134    0.1886    0.3259 C   0  0  0  0  0  0  0  0  0  0  0  0
   -2.7970    1.3095    0.1528 C   0  0  0  0  0  0  0  0  0  0  0  0
   -1.8496   -0.6213    1.4668 C   0  0  0  0  0  0  0  0  0  0  0  0
   -0.9182   -1.6475    1.6392 C   0  0  0  0  0  0  0  0  0  0  0  0
   -0.9364   -2.4993    2.8747 C   0  0  0  0  0  0  0  0  0  0  0  0
    0.0743   -1.8336    0.6692 C   0  0  0  0  0  0  0  0  0  0  0  0
    4.6159   -1.1676   -1.5601 C   0  0  0  0  0  0  0  0  0  0  0  0
    5.4475   -1.8591   -0.6809 C   0  0  0  0  0  0  0  0  0  0  0  0
    5.3967   -3.2476   -0.6356 C   0  0  0  0  0  0  0  0  0  0  0  0
    6.1782   -3.9456    0.2317 O   0  0  0  0  0  0  0  0  0  0  0  0
    5.6814   -4.0647    1.5954 C   0  0  0  0  0  0  0  0  0  0  0  0
    5.8044   -5.5779    2.0169 C   0  0  0  0  0  0  0  0  0  0  0  0
    5.0642   -6.3916    1.3860 O   0  0  0  0  0  0  0  0  0  0  0  0
    6.6009   -5.8304    2.9701 O   0  0  0  0  0  1  0  0  0  0  0  0
    6.5660   -3.1733    2.4733 C   0  0  0  0  0  0  0  0  0  0  0  0
    4.1975   -3.7280    1.8427 C   0  0  0  0  0  0  0  0  0  0  0  0
    4.5826   -5.0471   -1.4707 H   0  0  0  0  0  0  0  0  0  0  0  0
    3.1042   -3.8407   -3.0596 H   0  0  0  0  0  0  0  0  0  0  0  0
    2.3924   -1.7467   -4.0810 H   0  0  0  0  0  0  0  0  0  0  0  0
    3.2695   -0.2638   -3.7302 H   0  0  0  0  0  0  0  0  0  0  0  0
    1.7959   -2.0525   -1.1117 H   0  0  0  0  0  0  0  0  0  0  0  0
   -0.7781    0.6413   -1.4981 H   0  0  0  0  0  0  0  0  0  0  0  0
   -3.0505    1.4446   -0.9035 H   0  0  0  0  0  0  0  0  0  0  0  0
   -2.3658    2.2401    0.5343 H   0  0  0  0  0  0  0  0  0  0  0  0
   -3.7278    1.1067    0.6906 H   0  0  0  0  0  0  0  0  0  0  0  0
   -2.6048   -0.4506    2.2267 H   0  0  0  0  0  0  0  0  0  0  0  0
   -1.9620   -2.6532    3.2250 H   0  0  0  0  0  0  0  0  0  0  0  0
   -0.3554   -2.0191    3.6718 H   0  0  0  0  0  0  0  0  0  0  0  0
   -0.5092   -3.4887    2.6728 H   0  0  0  0  0  0  0  0  0  0  0  0
    0.8068   -2.6238    0.8121 H   0  0  0  0  0  0  0  0  0  0  0  0
    4.6262   -0.0792   -1.5554 H   0  0  0  0  0  0  0  0  0  0  0  0
    6.1130   -1.3210   -0.0146 H   0  0  0  0  0  0  0  0  0  0  0  0
    6.3313   -3.2851    3.5382 H   0  0  0  0  0  0  0  0  0  0  0  0
    6.4408   -2.1132    2.2153 H   0  0  0  0  0  0  0  0  0  0  0  0
    7.6298   -3.4058    2.3224 H   0  0  0  0  0  0  0  0  0  0  0  0
    3.9086   -3.9495    2.8756 H   0  0  0  0  0  0  0  0  0  0  0  0
    3.5273   -4.2920    1.1845 H   0  0  0  0  0  0  0  0  0  0  0  0
    3.9911   -2.6649    1.6705 H   0  0  0  0  0  0  0  0  0  0  0  0
 26  1  1  0
  1  2  2  0
  2 27  1  0
  2  3  1  0
  3  4  1  0
  4 28  1  0
  4 29  1  0
  4  5  1  0
  5  6  2  0
  5  7  1  0
  7 30  1  0
  7  8  1  0
  8  9  2  0
  9 31  1  0
  9 10  1  0
 10 11  1  0
 11 32  1  0
 11 33  1  0
 11 34  1  0
 10 12  2  0
 12 35  1  0
 12 13  1  0
 13 14  1  0
 14 36  1  0
 14 37  1  0
 14 38  1  0
  8 15  1  0
 13 15  2  0
 15 39  1  0
  3 16  2  0
 16 40  1  0
 16 17  1  0
 17 41  1  0
  1 18  1  0
 17 18  2  0
 18 19  1  0
 19 20  1  0
 20 21  1  0
 21 22  2  0
 21 23  1  0
 20 24  1  0
 24 42  1  0
 24 43  1  0
 24 44  1  0
 20 25  1  0
 25 45  1  0
 25 46  1  0
 25 47  1  0
M  CHG  1  23  -1
M  END
>  <conformer_energy>  (1) 
102.01000000000001

>  <ligand_smiles>  (1) 
Cc1cc(C)cc(NC(=O)Cc2ccc(OC(C)(C)C(=O)[O-])cc2)c1

>  <ligand_conf_name>  (1) 
MOL_0_isomer_0_conf_0

>  <ligand_molecule_name>  (1) 
MOL_0_isomer_0

>  <SMILES>  (1) 
Cc1cc(C)cc(NC(=O)Cc2ccc(OC(C)(C)C(=O)[O-])cc2)c1

$$$$
1G9V_ligand_con24
     RDKit          3D

 47 48  0  0  0  0  0  0  0  0999 V2000
    4.6522   -3.9421   -1.4342 C   0  0  0  0  0  0  0  0  0  0  0  0
    3.7969   -3.3441   -2.3577 C   0  0  0  0  0  0  0  0  0  0  0  0
    3.7249   -1.9439   -2.4465 C   0  0  0  0  0  0  0  0  0  0  0  0
    2.6830   -1.2865   -3.3265 C   0  0  0  0  0  0  0  0  0  0  0  0
    1.4691   -0.7304   -2.5825 C   0  0  0  0  0  0  0  0  0  0  0  0
    0.8654    0.2314   -3.0507 O   0  0  0  0  0  0  0  0  0  0  0  0
    1.1243   -1.4302   -1.4350 N   0  0  0  0  0  0  0  0  0  0  0  0
    0.0946   -1.1468   -0.5174 C   0  0  0  0  0  0  0  0  0  0  0  0
   -0.8081   -0.0869   -0.6474 C   0  0  0  0  0  0  0  0  0  0  0  0
   -1.8011    0.1439    0.3232 C   0  0  0  0  0  0  0  0  0  0  0  0
   -2.7461    1.2987    0.1856 C   0  0  0  0  0  0  0  0  0  0  0  0
   -1.8614   -0.6850    1.4487 C   0  0  0  0  0  0  0  0  0  0  0  0
   -0.9737   -1.7579    1.5902 C   0  0  0  0  0  0  0  0  0  0  0  0
   -1.0136   -2.6179    2.8165 C   0  0  0  0  0  0  0  0  0  0  0  0
    0.0046   -1.9769    0.6056 C   0  0  0  0  0  0  0  0  0  0  0  0
    4.5587   -1.1569   -1.6361 C   0  0  0  0  0  0  0  0  0  0  0  0
    5.4261   -1.7602   -0.7245 C   0  0  0  0  0  0  0  0  0  0  0  0
    5.4368   -3.1460   -0.6043 C   0  0  0  0  0  0  0  0  0  0  0  0
    6.2597   -3.7523    0.2976 O   0  0  0  0  0  0  0  0  0  0  0  0
    5.7376   -3.8841    1.6505 C   0  0  0  0  0  0  0  0  0  0  0  0
    5.5928   -5.4139    1.9897 C   0  0  0  0  0  0  0  0  0  0  0  0
    6.2501   -5.8162    2.9979 O   0  0  0  0  0  0  0  0  0  0  0  0
    4.7888   -6.0795    1.2664 O   0  0  0  0  0  1  0  0  0  0  0  0
    6.7704   -3.1932    2.5498 C   0  0  0  0  0  0  0  0  0  0  0  0
    4.3390   -3.3069    1.9534 C   0  0  0  0  0  0  0  0  0  0  0  0
    4.6944   -5.0255   -1.3218 H   0  0  0  0  0  0  0  0  0  0  0  0
    3.1647   -3.9792   -2.9747 H   0  0  0  0  0  0  0  0  0  0  0  0
    2.3203   -1.9861   -4.0891 H   0  0  0  0  0  0  0  0  0  0  0  0
    3.1613   -0.4555   -3.8650 H   0  0  0  0  0  0  0  0  0  0  0  0
    1.7036   -2.2298   -1.1914 H   0  0  0  0  0  0  0  0  0  0  0  0
   -0.7592    0.5870   -1.4989 H   0  0  0  0  0  0  0  0  0  0  0  0
   -2.9204    1.5409   -0.8687 H   0  0  0  0  0  0  0  0  0  0  0  0
   -2.3421    2.1795    0.6883 H   0  0  0  0  0  0  0  0  0  0  0  0
   -3.7231    1.0590    0.6268 H   0  0  0  0  0  0  0  0  0  0  0  0
   -2.6037   -0.4974    2.2232 H   0  0  0  0  0  0  0  0  0  0  0  0
   -2.0341   -2.6956    3.2091 H   0  0  0  0  0  0  0  0  0  0  0  0
   -0.3682   -2.1948    3.5943 H   0  0  0  0  0  0  0  0  0  0  0  0
   -0.6758   -3.6343    2.5906 H   0  0  0  0  0  0  0  0  0  0  0  0
    0.7154   -2.7896    0.7392 H   0  0  0  0  0  0  0  0  0  0  0  0
    4.5148   -0.0726   -1.6879 H   0  0  0  0  0  0  0  0  0  0  0  0
    6.0591   -1.1591   -0.0819 H   0  0  0  0  0  0  0  0  0  0  0  0
    6.5181   -3.2879    3.6088 H   0  0  0  0  0  0  0  0  0  0  0  0
    6.8497   -2.1265    2.3025 H   0  0  0  0  0  0  0  0  0  0  0  0
    7.7753   -3.6239    2.4037 H   0  0  0  0  0  0  0  0  0  0  0  0
    4.0383   -3.5222    2.9840 H   0  0  0  0  0  0  0  0  0  0  0  0
    3.5662   -3.7200    1.2985 H   0  0  0  0  0  0  0  0  0  0  0  0
    4.3179   -2.2163    1.8310 H   0  0  0  0  0  0  0  0  0  0  0  0
 26  1  1  0
  1  2  2  0
  2 27  1  0
  2  3  1  0
  3  4  1  0
  4 28  1  0
  4 29  1  0
  4  5  1  0
  5  6  2  0
  5  7  1  0
  7 30  1  0
  7  8  1  0
  8  9  2  0
  9 31  1  0
  9 10  1  0
 10 11  1  0
 11 32  1  0
 11 33  1  0
 11 34  1  0
 10 12  2  0
 12 35  1  0
 12 13  1  0
 13 14  1  0
 14 36  1  0
 14 37  1  0
 14 38  1  0
  8 15  1  0
 13 15  2  0
 15 39  1  0
  3 16  2  0
 16 40  1  0
 16 17  1  0
 17 41  1  0
  1 18  1  0
 17 18  2  0
 18 19  1  0
 19 20  1  0
 20 21  1  0
 21 22  2  0
 21 23  1  0
 20 24  1  0
 24 42  1  0
 24 43  1  0
 24 44  1  0
 20 25  1  0
 25 45  1  0
 25 46  1  0
 25 47  1  0
M  CHG  1  23  -1
M  END
>  <conformer_energy>  (1) 
102.01000000000001

>  <ligand_smiles>  (1) 
Cc1cc(C)cc(NC(=O)Cc2ccc(OC(C)(C)C(=O)[O-])cc2)c1

>  <ligand_conf_name>  (1) 
MOL_0_isomer_0_conf_0

>  <ligand_molecule_name>  (1) 
MOL_0_isomer_0

>  <SMILES>  (1) 
Cc1cc(C)cc(NC(=O)Cc2ccc(OC(C)(C)C(=O)[O-])cc2)c1

$$$$
1G9V_ligand_con25
     RDKit          3D

 47 48  0  0  0  0  0  0  0  0999 V2000
    4.0490    3.5366   -2.2522 C   0  0  0  0  0  0  0  0  0  0  0  0
    3.7648    2.1940   -2.5135 C   0  0  0  0  0  0  0  0  0  0  0  0
    4.0277    1.2115   -1.5432 C   0  0  0  0  0  0  0  0  0  0  0  0
    3.6455   -0.2308   -1.7933 C   0  0  0  0  0  0  0  0  0  0  0  0
    2.1463   -0.5216   -1.7379 C   0  0  0  0  0  0  0  0  0  0  0  0
    1.6623   -1.3796   -2.4770 O   0  0  0  0  0  0  0  0  0  0  0  0
    1.4640    0.1908   -0.7675 N   0  0  0  0  0  0  0  0  0  0  0  0
    0.1108    0.0839   -0.3933 C   0  0  0  0  0  0  0  0  0  0  0  0
   -0.7734   -0.8608   -0.9126 C   0  0  0  0  0  0  0  0  0  0  0  0
   -2.1102   -0.9028   -0.4853 C   0  0  0  0  0  0  0  0  0  0  0  0
   -3.0450   -1.9362   -1.0400 C   0  0  0  0  0  0  0  0  0  0  0  0
   -2.5474   -0.0089    0.4991 C   0  0  0  0  0  0  0  0  0  0  0  0
   -1.6769    0.9482    1.0276 C   0  0  0  0  0  0  0  0  0  0  0  0
   -2.1353    1.8883    2.1024 C   0  0  0  0  0  0  0  0  0  0  0  0
   -0.3500    0.9824    0.5795 C   0  0  0  0  0  0  0  0  0  0  0  0
    4.5925    1.5933   -0.3126 C   0  0  0  0  0  0  0  0  0  0  0  0
    4.8717    2.9369   -0.0523 C   0  0  0  0  0  0  0  0  0  0  0  0
    4.6116    3.8979   -1.0291 C   0  0  0  0  0  0  0  0  0  0  0  0
    4.8175    5.2153   -0.7500 O   0  0  0  0  0  0  0  0  0  0  0  0
    6.1553    5.7334   -0.9988 C   0  0  0  0  0  0  0  0  0  0  0  0
    6.6922    6.3517    0.3484 C   0  0  0  0  0  0  0  0  0  0  0  0
    6.9228    7.5993    0.3351 O   0  0  0  0  0  0  0  0  0  0  0  0
    6.8688    5.5283    1.2993 O   0  0  0  0  0  1  0  0  0  0  0  0
    7.2425    4.7336   -1.4382 C   0  0  0  0  0  0  0  0  0  0  0  0
    5.9882    6.7976   -2.0884 C   0  0  0  0  0  0  0  0  0  0  0  0
    3.8341    4.3033   -2.9925 H   0  0  0  0  0  0  0  0  0  0  0  0
    3.3184    1.9247   -3.4699 H   0  0  0  0  0  0  0  0  0  0  0  0
    4.1372   -0.8901   -1.0615 H   0  0  0  0  0  0  0  0  0  0  0  0
    4.0181   -0.5256   -2.7856 H   0  0  0  0  0  0  0  0  0  0  0  0
    1.9854    0.9228   -0.2947 H   0  0  0  0  0  0  0  0  0  0  0  0
   -0.4469   -1.5785   -1.6586 H   0  0  0  0  0  0  0  0  0  0  0  0
   -2.8202   -2.1366   -2.0922 H   0  0  0  0  0  0  0  0  0  0  0  0
   -4.0837   -1.5912   -0.9910 H   0  0  0  0  0  0  0  0  0  0  0  0
   -2.9575   -2.8687   -0.4750 H   0  0  0  0  0  0  0  0  0  0  0  0
   -3.5752   -0.0557    0.8516 H   0  0  0  0  0  0  0  0  0  0  0  0
   -3.2194    2.0423    2.0550 H   0  0  0  0  0  0  0  0  0  0  0  0
   -1.6621    2.8712    1.9893 H   0  0  0  0  0  0  0  0  0  0  0  0
   -1.8801    1.4824    3.0876 H   0  0  0  0  0  0  0  0  0  0  0  0
    0.3269    1.7216    1.0007 H   0  0  0  0  0  0  0  0  0  0  0  0
    4.8095    0.8552    0.4594 H   0  0  0  0  0  0  0  0  0  0  0  0
    5.3051    3.2485    0.9001 H   0  0  0  0  0  0  0  0  0  0  0  0
    8.2081    5.2390   -1.5647 H   0  0  0  0  0  0  0  0  0  0  0  0
    6.9890    4.2555   -2.3928 H   0  0  0  0  0  0  0  0  0  0  0  0
    7.3949    3.9293   -0.7078 H   0  0  0  0  0  0  0  0  0  0  0  0
    6.9299    7.3057   -2.3218 H   0  0  0  0  0  0  0  0  0  0  0  0
    5.2546    7.5557   -1.7902 H   0  0  0  0  0  0  0  0  0  0  0  0
    5.6072    6.3420   -3.0117 H   0  0  0  0  0  0  0  0  0  0  0  0
 26  1  1  0
  1  2  2  0
  2 27  1  0
  2  3  1  0
  3  4  1  0
  4 28  1  0
  4 29  1  0
  4  5  1  0
  5  6  2  0
  5  7  1  0
  7 30  1  0
  7  8  1  0
  8  9  2  0
  9 31  1  0
  9 10  1  0
 10 11  1  0
 11 32  1  0
 11 33  1  0
 11 34  1  0
 10 12  2  0
 12 35  1  0
 12 13  1  0
 13 14  1  0
 14 36  1  0
 14 37  1  0
 14 38  1  0
  8 15  1  0
 13 15  2  0
 15 39  1  0
  3 16  2  0
 16 40  1  0
 16 17  1  0
 17 41  1  0
  1 18  1  0
 17 18  2  0
 18 19  1  0
 19 20  1  0
 20 21  1  0
 21 22  2  0
 21 23  1  0
 20 24  1  0
 24 42  1  0
 24 43  1  0
 24 44  1  0
 20 25  1  0
 25 45  1  0
 25 46  1  0
 25 47  1  0
M  CHG  1  23  -1
M  END
>  <conformer_energy>  (1) 
102.01000000000001

>  <ligand_smiles>  (1) 
Cc1cc(C)cc(NC(=O)Cc2ccc(OC(C)(C)C(=O)[O-])cc2)c1

>  <ligand_conf_name>  (1) 
MOL_0_isomer_0_conf_0

>  <ligand_molecule_name>  (1) 
MOL_0_isomer_0

>  <SMILES>  (1) 
Cc1cc(C)cc(NC(=O)Cc2ccc(OC(C)(C)C(=O)[O-])cc2)c1

$$$$
1G9V_ligand_con26
     RDKit          3D

 47 48  0  0  0  0  0  0  0  0999 V2000
    4.0218    3.4695   -2.3305 C   0  0  0  0  0  0  0  0  0  0  0  0
    3.7481    2.1057   -2.4787 C   0  0  0  0  0  0  0  0  0  0  0  0
    4.0463    1.2096   -1.4341 C   0  0  0  0  0  0  0  0  0  0  0  0
    3.7090   -0.2585   -1.5676 C   0  0  0  0  0  0  0  0  0  0  0  0
    2.2166   -0.5779   -1.5345 C   0  0  0  0  0  0  0  0  0  0  0  0
    1.7658   -1.4609   -2.2609 O   0  0  0  0  0  0  0  0  0  0  0  0
    1.5037    0.1444   -0.5960 N   0  0  0  0  0  0  0  0  0  0  0  0
    0.1406    0.0343   -0.2571 C   0  0  0  0  0  0  0  0  0  0  0  0
   -0.7230   -0.9290   -0.7808 C   0  0  0  0  0  0  0  0  0  0  0  0
   -2.0734   -0.9773   -0.3949 C   0  0  0  0  0  0  0  0  0  0  0  0
   -2.9854   -2.0328   -0.9488 C   0  0  0  0  0  0  0  0  0  0  0  0
   -2.5461   -0.0561    0.5475 C   0  0  0  0  0  0  0  0  0  0  0  0
   -1.7017    0.9336    1.0627 C   0  0  0  0  0  0  0  0  0  0  0  0
   -2.2073    1.9222    2.0702 C   0  0  0  0  0  0  0  0  0  0  0  0
   -0.3593    0.9638    0.6607 C   0  0  0  0  0  0  0  0  0  0  0  0
    4.6122    1.7043   -0.2440 C   0  0  0  0  0  0  0  0  0  0  0  0
    4.8591    3.0733   -0.0937 C   0  0  0  0  0  0  0  0  0  0  0  0
    4.5802    3.9448   -1.1450 C   0  0  0  0  0  0  0  0  0  0  0  0
    4.7641    5.2883   -1.0005 O   0  0  0  0  0  0  0  0  0  0  0  0
    6.1263    5.7846   -1.1817 C   0  0  0  0  0  0  0  0  0  0  0  0
    6.6598    6.3336    0.1890 C   0  0  0  0  0  0  0  0  0  0  0  0
    6.8049    5.4747    1.1118 O   0  0  0  0  0  0  0  0  0  0  0  0
    6.9227    7.5695    0.2285 O   0  0  0  0  0  1  0  0  0  0  0  0
    7.1819    4.7858   -1.6884 C   0  0  0  0  0  0  0  0  0  0  0  0
    5.9888    6.9039   -2.2302 C   0  0  0  0  0  0  0  0  0  0  0  0
    3.7971    4.1634   -3.1378 H   0  0  0  0  0  0  0  0  0  0  0  0
    3.3096    1.7492   -3.4100 H   0  0  0  0  0  0  0  0  0  0  0  0
    4.1848   -0.8395   -0.7637 H   0  0  0  0  0  0  0  0  0  0  0  0
    4.1212   -0.6276   -2.5181 H   0  0  0  0  0  0  0  0  0  0  0  0
    2.0118    0.8804   -0.1197 H   0  0  0  0  0  0  0  0  0  0  0  0
   -0.3689   -1.6750   -1.4890 H   0  0  0  0  0  0  0  0  0  0  0  0
   -2.7507   -2.2451   -1.9993 H   0  0  0  0  0  0  0  0  0  0  0  0
   -4.0265   -1.7013   -0.9117 H   0  0  0  0  0  0  0  0  0  0  0  0
   -2.8883   -2.9563   -0.3660 H   0  0  0  0  0  0  0  0  0  0  0  0
   -3.5827   -0.1042    0.8730 H   0  0  0  0  0  0  0  0  0  0  0  0
   -3.2798    2.0870    1.9562 H   0  0  0  0  0  0  0  0  0  0  0  0
   -1.7162    2.8867    1.9421 H   0  0  0  0  0  0  0  0  0  0  0  0
   -2.0193    1.5578    3.0832 H   0  0  0  0  0  0  0  0  0  0  0  0
    0.2956    1.7323    1.0622 H   0  0  0  0  0  0  0  0  0  0  0  0
    4.8483    1.0419    0.5883 H   0  0  0  0  0  0  0  0  0  0  0  0
    5.2541    3.4716    0.8408 H   0  0  0  0  0  0  0  0  0  0  0  0
    8.1613    5.2657   -1.7836 H   0  0  0  0  0  0  0  0  0  0  0  0
    6.9131    4.4042   -2.6750 H   0  0  0  0  0  0  0  0  0  0  0  0
    7.3136    3.9337   -1.0192 H   0  0  0  0  0  0  0  0  0  0  0  0
    6.9420    7.4029   -2.4323 H   0  0  0  0  0  0  0  0  0  0  0  0
    5.2703    7.6572   -1.9024 H   0  0  0  0  0  0  0  0  0  0  0  0
    5.6103    6.5010   -3.1736 H   0  0  0  0  0  0  0  0  0  0  0  0
 26  1  1  0
  1  2  2  0
  2 27  1  0
  2  3  1  0
  3  4  1  0
  4 28  1  0
  4 29  1  0
  4  5  1  0
  5  6  2  0
  5  7  1  0
  7 30  1  0
  7  8  1  0
  8  9  2  0
  9 31  1  0
  9 10  1  0
 10 11  1  0
 11 32  1  0
 11 33  1  0
 11 34  1  0
 10 12  2  0
 12 35  1  0
 12 13  1  0
 13 14  1  0
 14 36  1  0
 14 37  1  0
 14 38  1  0
  8 15  1  0
 13 15  2  0
 15 39  1  0
  3 16  2  0
 16 40  1  0
 16 17  1  0
 17 41  1  0
  1 18  1  0
 17 18  2  0
 18 19  1  0
 19 20  1  0
 20 21  1  0
 21 22  2  0
 21 23  1  0
 20 24  1  0
 24 42  1  0
 24 43  1  0
 24 44  1  0
 20 25  1  0
 25 45  1  0
 25 46  1  0
 25 47  1  0
M  CHG  1  23  -1
M  END
>  <conformer_energy>  (1) 
102.01000000000001

>  <ligand_smiles>  (1) 
Cc1cc(C)cc(NC(=O)Cc2ccc(OC(C)(C)C(=O)[O-])cc2)c1

>  <ligand_conf_name>  (1) 
MOL_0_isomer_0_conf_0

>  <ligand_molecule_name>  (1) 
MOL_0_isomer_0

>  <SMILES>  (1) 
Cc1cc(C)cc(NC(=O)Cc2ccc(OC(C)(C)C(=O)[O-])cc2)c1

$$$$
1G9V_ligand_con27
     RDKit          3D

 47 48  0  0  0  0  0  0  0  0999 V2000
    3.5667   -3.9728   -1.9727 C   0  0  0  0  0  0  0  0  0  0  0  0
    3.0604   -2.8586   -2.6444 C   0  0  0  0  0  0  0  0  0  0  0  0
    3.5906   -1.5824   -2.3992 C   0  0  0  0  0  0  0  0  0  0  0  0
    2.9908   -0.3659   -3.0631 C   0  0  0  0  0  0  0  0  0  0  0  0
    1.6551    0.1233   -2.5052 C   0  0  0  0  0  0  0  0  0  0  0  0
    0.9599    0.8714   -3.1933 O   0  0  0  0  0  0  0  0  0  0  0  0
    1.3597   -0.2924   -1.2202 N   0  0  0  0  0  0  0  0  0  0  0  0
    0.2290    0.0233   -0.4391 C   0  0  0  0  0  0  0  0  0  0  0  0
   -0.7796    0.9016   -0.8357 C   0  0  0  0  0  0  0  0  0  0  0  0
   -1.8773    1.1616    0.0009 C   0  0  0  0  0  0  0  0  0  0  0  0
   -2.9316    2.1394   -0.4267 C   0  0  0  0  0  0  0  0  0  0  0  0
   -1.9476    0.5451    1.2556 C   0  0  0  0  0  0  0  0  0  0  0  0
   -0.9536   -0.3491    1.6650 C   0  0  0  0  0  0  0  0  0  0  0  0
   -1.0163   -0.9990    3.0151 C   0  0  0  0  0  0  0  0  0  0  0  0
    0.1352   -0.5934    0.8161 C   0  0  0  0  0  0  0  0  0  0  0  0
    4.6359   -1.4410   -1.4737 C   0  0  0  0  0  0  0  0  0  0  0  0
    5.1359   -2.5573   -0.8034 C   0  0  0  0  0  0  0  0  0  0  0  0
    4.6184   -3.8214   -1.0744 C   0  0  0  0  0  0  0  0  0  0  0  0
    5.0624   -4.8818   -0.3438 O   0  0  0  0  0  0  0  0  0  0  0  0
    6.1049   -5.7014   -0.9413 C   0  0  0  0  0  0  0  0  0  0  0  0
    6.7518   -6.5304    0.2406 C   0  0  0  0  0  0  0  0  0  0  0  0
    7.6383   -5.9273    0.9199 O   0  0  0  0  0  0  0  0  0  0  0  0
    6.3270   -7.7156    0.3931 O   0  0  0  0  0  1  0  0  0  0  0  0
    5.5009   -6.6737   -1.9617 C   0  0  0  0  0  0  0  0  0  0  0  0
    7.2475   -4.9018   -1.5879 C   0  0  0  0  0  0  0  0  0  0  0  0
    3.1317   -4.9549   -2.1344 H   0  0  0  0  0  0  0  0  0  0  0  0
    2.2349   -2.9925   -3.3406 H   0  0  0  0  0  0  0  0  0  0  0  0
    2.8480   -0.5881   -4.1278 H   0  0  0  0  0  0  0  0  0  0  0  0
    3.6931    0.4745   -3.0100 H   0  0  0  0  0  0  0  0  0  0  0  0
    2.0148   -0.9331   -0.7843 H   0  0  0  0  0  0  0  0  0  0  0  0
   -0.7346    1.4064   -1.7953 H   0  0  0  0  0  0  0  0  0  0  0  0
   -3.1038    2.0790   -1.5059 H   0  0  0  0  0  0  0  0  0  0  0  0
   -2.6230    3.1579   -0.1723 H   0  0  0  0  0  0  0  0  0  0  0  0
   -3.8863    1.9284    0.0653 H   0  0  0  0  0  0  0  0  0  0  0  0
   -2.7861    0.7595    1.9152 H   0  0  0  0  0  0  0  0  0  0  0  0
   -2.0458   -1.0441    3.3840 H   0  0  0  0  0  0  0  0  0  0  0  0
   -0.4124   -0.4342    3.7305 H   0  0  0  0  0  0  0  0  0  0  0  0
   -0.6439   -2.0270    2.9675 H   0  0  0  0  0  0  0  0  0  0  0  0
    0.9128   -1.2812    1.1443 H   0  0  0  0  0  0  0  0  0  0  0  0
    5.0582   -0.4636   -1.2515 H   0  0  0  0  0  0  0  0  0  0  0  0
    5.9296   -2.4534   -0.0668 H   0  0  0  0  0  0  0  0  0  0  0  0
    6.2157   -7.4516   -2.2512 H   0  0  0  0  0  0  0  0  0  0  0  0
    5.1985   -6.1545   -2.8767 H   0  0  0  0  0  0  0  0  0  0  0  0
    4.6024   -7.1583   -1.5639 H   0  0  0  0  0  0  0  0  0  0  0  0
    8.0850   -5.5539   -1.8600 H   0  0  0  0  0  0  0  0  0  0  0  0
    7.6293   -4.1234   -0.9197 H   0  0  0  0  0  0  0  0  0  0  0  0
    6.9161   -4.3976   -2.5024 H   0  0  0  0  0  0  0  0  0  0  0  0
 26  1  1  0
  1  2  2  0
  2 27  1  0
  2  3  1  0
  3  4  1  0
  4 28  1  0
  4 29  1  0
  4  5  1  0
  5  6  2  0
  5  7  1  0
  7 30  1  0
  7  8  1  0
  8  9  2  0
  9 31  1  0
  9 10  1  0
 10 11  1  0
 11 32  1  0
 11 33  1  0
 11 34  1  0
 10 12  2  0
 12 35  1  0
 12 13  1  0
 13 14  1  0
 14 36  1  0
 14 37  1  0
 14 38  1  0
  8 15  1  0
 13 15  2  0
 15 39  1  0
  3 16  2  0
 16 40  1  0
 16 17  1  0
 17 41  1  0
  1 18  1  0
 17 18  2  0
 18 19  1  0
 19 20  1  0
 20 21  1  0
 21 22  2  0
 21 23  1  0
 20 24  1  0
 24 42  1  0
 24 43  1  0
 24 44  1  0
 20 25  1  0
 25 45  1  0
 25 46  1  0
 25 47  1  0
M  CHG  1  23  -1
M  END
>  <conformer_energy>  (1) 
102.01000000000001

>  <ligand_smiles>  (1) 
Cc1cc(C)cc(NC(=O)Cc2ccc(OC(C)(C)C(=O)[O-])cc2)c1

>  <ligand_conf_name>  (1) 
MOL_0_isomer_0_conf_0

>  <ligand_molecule_name>  (1) 
MOL_0_isomer_0

>  <SMILES>  (1) 
Cc1cc(C)cc(NC(=O)Cc2ccc(OC(C)(C)C(=O)[O-])cc2)c1

$$$$
1G9V_ligand_con28
     RDKit          3D

 47 48  0  0  0  0  0  0  0  0999 V2000
    3.5796   -3.9400   -2.0127 C   0  0  0  0  0  0  0  0  0  0  0  0
    3.0947   -2.7994   -2.6548 C   0  0  0  0  0  0  0  0  0  0  0  0
    3.6271   -1.5365   -2.3534 C   0  0  0  0  0  0  0  0  0  0  0  0
    3.0498   -0.2932   -2.9865 C   0  0  0  0  0  0  0  0  0  0  0  0
    1.7038    0.1848   -2.4409 C   0  0  0  0  0  0  0  0  0  0  0  0
    1.0285    0.9616   -3.1166 O   0  0  0  0  0  0  0  0  0  0  0  0
    1.3782   -0.2718   -1.1770 N   0  0  0  0  0  0  0  0  0  0  0  0
    0.2350    0.0263   -0.4080 C   0  0  0  0  0  0  0  0  0  0  0  0
   -0.7664    0.9149   -0.8003 C   0  0  0  0  0  0  0  0  0  0  0  0
   -1.8738    1.1605    0.0271 C   0  0  0  0  0  0  0  0  0  0  0  0
   -2.9214    2.1483   -0.3941 C   0  0  0  0  0  0  0  0  0  0  0  0
   -1.9621    0.5176    1.2673 C   0  0  0  0  0  0  0  0  0  0  0  0
   -0.9778   -0.3903    1.6694 C   0  0  0  0  0  0  0  0  0  0  0  0
   -1.0610   -1.0675    3.0050 C   0  0  0  0  0  0  0  0  0  0  0  0
    0.1218   -0.6192    0.8308 C   0  0  0  0  0  0  0  0  0  0  0  0
    4.6528   -1.4354   -1.4014 C   0  0  0  0  0  0  0  0  0  0  0  0
    5.1323   -2.5783   -0.7622 C   0  0  0  0  0  0  0  0  0  0  0  0
    4.6130   -3.8281   -1.0891 C   0  0  0  0  0  0  0  0  0  0  0  0
    5.0401   -4.9169   -0.3895 O   0  0  0  0  0  0  0  0  0  0  0  0
    6.0811   -5.7249   -1.0047 C   0  0  0  0  0  0  0  0  0  0  0  0
    6.7305   -6.5780    0.1585 C   0  0  0  0  0  0  0  0  0  0  0  0
    6.3314   -7.7767    0.2655 O   0  0  0  0  0  0  0  0  0  0  0  0
    7.5947   -5.9784    0.8685 O   0  0  0  0  0  1  0  0  0  0  0  0
    5.4728   -6.6722   -2.0450 C   0  0  0  0  0  0  0  0  0  0  0  0
    7.2266   -4.9155   -1.6349 C   0  0  0  0  0  0  0  0  0  0  0  0
    3.1420   -4.9124   -2.2186 H   0  0  0  0  0  0  0  0  0  0  0  0
    2.2860   -2.9034   -3.3746 H   0  0  0  0  0  0  0  0  0  0  0  0
    2.9298   -0.4749   -4.0621 H   0  0  0  0  0  0  0  0  0  0  0  0
    3.7572    0.5405   -2.8857 H   0  0  0  0  0  0  0  0  0  0  0  0
    2.0217   -0.9289   -0.7485 H   0  0  0  0  0  0  0  0  0  0  0  0
   -0.7067    1.4385   -1.7498 H   0  0  0  0  0  0  0  0  0  0  0  0
   -3.0735    2.1175   -1.4777 H   0  0  0  0  0  0  0  0  0  0  0  0
   -2.6205    3.1609   -0.1061 H   0  0  0  0  0  0  0  0  0  0  0  0
   -3.8849    1.9202    0.0728 H   0  0  0  0  0  0  0  0  0  0  0  0
   -2.8060    0.7219    1.9218 H   0  0  0  0  0  0  0  0  0  0  0  0
   -2.1006   -1.1496    3.3405 H   0  0  0  0  0  0  0  0  0  0  0  0
   -0.4952   -0.4985    3.7493 H   0  0  0  0  0  0  0  0  0  0  0  0
   -0.6567   -2.0839    2.9508 H   0  0  0  0  0  0  0  0  0  0  0  0
    0.8944   -1.3148    1.1553 H   0  0  0  0  0  0  0  0  0  0  0  0
    5.0770   -0.4700   -1.1365 H   0  0  0  0  0  0  0  0  0  0  0  0
    5.9122   -2.5069   -0.0075 H   0  0  0  0  0  0  0  0  0  0  0  0
    6.1864   -7.4407   -2.3612 H   0  0  0  0  0  0  0  0  0  0  0  0
    5.1623   -6.1304   -2.9450 H   0  0  0  0  0  0  0  0  0  0  0  0
    4.5782   -7.1692   -1.6527 H   0  0  0  0  0  0  0  0  0  0  0  0
    8.0642   -5.5638   -1.9170 H   0  0  0  0  0  0  0  0  0  0  0  0
    7.6092   -4.1509   -0.9514 H   0  0  0  0  0  0  0  0  0  0  0  0
    6.8975   -4.3937   -2.5407 H   0  0  0  0  0  0  0  0  0  0  0  0
 26  1  1  0
  1  2  2  0
  2 27  1  0
  2  3  1  0
  3  4  1  0
  4 28  1  0
  4 29  1  0
  4  5  1  0
  5  6  2  0
  5  7  1  0
  7 30  1  0
  7  8  1  0
  8  9  2  0
  9 31  1  0
  9 10  1  0
 10 11  1  0
 11 32  1  0
 11 33  1  0
 11 34  1  0
 10 12  2  0
 12 35  1  0
 12 13  1  0
 13 14  1  0
 14 36  1  0
 14 37  1  0
 14 38  1  0
  8 15  1  0
 13 15  2  0
 15 39  1  0
  3 16  2  0
 16 40  1  0
 16 17  1  0
 17 41  1  0
  1 18  1  0
 17 18  2  0
 18 19  1  0
 19 20  1  0
 20 21  1  0
 21 22  2  0
 21 23  1  0
 20 24  1  0
 24 42  1  0
 24 43  1  0
 24 44  1  0
 20 25  1  0
 25 45  1  0
 25 46  1  0
 25 47  1  0
M  CHG  1  23  -1
M  END
>  <conformer_energy>  (1) 
102.01000000000001

>  <ligand_smiles>  (1) 
Cc1cc(C)cc(NC(=O)Cc2ccc(OC(C)(C)C(=O)[O-])cc2)c1

>  <ligand_conf_name>  (1) 
MOL_0_isomer_0_conf_0

>  <ligand_molecule_name>  (1) 
MOL_0_isomer_0

>  <SMILES>  (1) 
Cc1cc(C)cc(NC(=O)Cc2ccc(OC(C)(C)C(=O)[O-])cc2)c1

$$$$
1G9V_ligand_con29
     RDKit          3D

 47 48  0  0  0  0  0  0  0  0999 V2000
    4.6488    3.7720   -1.1297 C   0  0  0  0  0  0  0  0  0  0  0  0
    4.1904    2.7060   -1.9051 C   0  0  0  0  0  0  0  0  0  0  0  0
    4.4019    1.3838   -1.4859 C   0  0  0  0  0  0  0  0  0  0  0  0
    3.8283    0.2318   -2.2753 C   0  0  0  0  0  0  0  0  0  0  0  0
    2.3353   -0.0430   -2.0925 C   0  0  0  0  0  0  0  0  0  0  0  0
    1.7651   -0.7855   -2.8926 O   0  0  0  0  0  0  0  0  0  0  0  0
    1.7493    0.5473   -0.9881 N   0  0  0  0  0  0  0  0  0  0  0  0
    0.4098    0.4582   -0.5569 C   0  0  0  0  0  0  0  0  0  0  0  0
   -0.5724   -0.3007   -1.1946 C   0  0  0  0  0  0  0  0  0  0  0  0
   -1.8864   -0.3357   -0.7015 C   0  0  0  0  0  0  0  0  0  0  0  0
   -2.9194   -1.1880   -1.3777 C   0  0  0  0  0  0  0  0  0  0  0  0
   -2.2067    0.3842    0.4557 C   0  0  0  0  0  0  0  0  0  0  0  0
   -1.2401    1.1631    1.0992 C   0  0  0  0  0  0  0  0  0  0  0  0
   -1.5757    1.9181    2.3515 C   0  0  0  0  0  0  0  0  0  0  0  0
    0.0661    1.1850    0.5917 C   0  0  0  0  0  0  0  0  0  0  0  0
    5.1034    1.1472   -0.2942 C   0  0  0  0  0  0  0  0  0  0  0  0
    5.5595    2.2169    0.4759 C   0  0  0  0  0  0  0  0  0  0  0  0
    5.2931    3.5241    0.0782 C   0  0  0  0  0  0  0  0  0  0  0  0
    5.7765    4.5577    0.8242 O   0  0  0  0  0  0  0  0  0  0  0  0
    4.8671    5.1329    1.8056 C   0  0  0  0  0  0  0  0  0  0  0  0
    5.7238    6.1406    2.6749 C   0  0  0  0  0  0  0  0  0  0  0  0
    6.3010    5.6464    3.6908 O   0  0  0  0  0  0  0  0  0  0  0  0
    5.7437    7.3441    2.2768 O   0  0  0  0  0  1  0  0  0  0  0  0
    3.7398    5.9267    1.1318 C   0  0  0  0  0  0  0  0  0  0  0  0
    4.2733    4.0931    2.7694 C   0  0  0  0  0  0  0  0  0  0  0  0
    4.5037    4.7960   -1.4621 H   0  0  0  0  0  0  0  0  0  0  0  0
    3.6642    2.9172   -2.8333 H   0  0  0  0  0  0  0  0  0  0  0  0
    4.3624   -0.6932   -2.0249 H   0  0  0  0  0  0  0  0  0  0  0  0
    4.0062    0.4162   -3.3422 H   0  0  0  0  0  0  0  0  0  0  0  0
    2.3416    1.1417   -0.4180 H   0  0  0  0  0  0  0  0  0  0  0  0
   -0.3412   -0.8816   -2.0815 H   0  0  0  0  0  0  0  0  0  0  0  0
   -2.7624   -1.2046   -2.4613 H   0  0  0  0  0  0  0  0  0  0  0  0
   -3.9271   -0.7962   -1.2030 H   0  0  0  0  0  0  0  0  0  0  0  0
   -2.8690   -2.2121   -0.9952 H   0  0  0  0  0  0  0  0  0  0  0  0
   -3.2171    0.3400    0.8562 H   0  0  0  0  0  0  0  0  0  0  0  0
   -2.6394    2.1797    2.3791 H   0  0  0  0  0  0  0  0  0  0  0  0
   -1.0099    2.8548    2.4045 H   0  0  0  0  0  0  0  0  0  0  0  0
   -1.3400    1.3090    3.2300 H   0  0  0  0  0  0  0  0  0  0  0  0
    0.8190    1.7791    1.1071 H   0  0  0  0  0  0  0  0  0  0  0  0
    5.2976    0.1333    0.0480 H   0  0  0  0  0  0  0  0  0  0  0  0
    6.1155    2.0402    1.3930 H   0  0  0  0  0  0  0  0  0  0  0  0
    3.1924    6.5426    1.8547 H   0  0  0  0  0  0  0  0  0  0  0  0
    3.0106    5.2613    0.6570 H   0  0  0  0  0  0  0  0  0  0  0  0
    4.1280    6.5815    0.3434 H   0  0  0  0  0  0  0  0  0  0  0  0
    3.7465    4.5740    3.6016 H   0  0  0  0  0  0  0  0  0  0  0  0
    5.0487    3.4413    3.1879 H   0  0  0  0  0  0  0  0  0  0  0  0
    3.5526    3.4406    2.2628 H   0  0  0  0  0  0  0  0  0  0  0  0
 26  1  1  0
  1  2  2  0
  2 27  1  0
  2  3  1  0
  3  4  1  0
  4 28  1  0
  4 29  1  0
  4  5  1  0
  5  6  2  0
  5  7  1  0
  7 30  1  0
  7  8  1  0
  8  9  2  0
  9 31  1  0
  9 10  1  0
 10 11  1  0
 11 32  1  0
 11 33  1  0
 11 34  1  0
 10 12  2  0
 12 35  1  0
 12 13  1  0
 13 14  1  0
 14 36  1  0
 14 37  1  0
 14 38  1  0
  8 15  1  0
 13 15  2  0
 15 39  1  0
  3 16  2  0
 16 40  1  0
 16 17  1  0
 17 41  1  0
  1 18  1  0
 17 18  2  0
 18 19  1  0
 19 20  1  0
 20 21  1  0
 21 22  2  0
 21 23  1  0
 20 24  1  0
 24 42  1  0
 24 43  1  0
 24 44  1  0
 20 25  1  0
 25 45  1  0
 25 46  1  0
 25 47  1  0
M  CHG  1  23  -1
M  END
>  <conformer_energy>  (1) 
102.01000000000001

>  <ligand_smiles>  (1) 
Cc1cc(C)cc(NC(=O)Cc2ccc(OC(C)(C)C(=O)[O-])cc2)c1

>  <ligand_conf_name>  (1) 
MOL_0_isomer_0_conf_0

>  <ligand_molecule_name>  (1) 
MOL_0_isomer_0

>  <SMILES>  (1) 
Cc1cc(C)cc(NC(=O)Cc2ccc(OC(C)(C)C(=O)[O-])cc2)c1

$$$$
1G9V_ligand_con30
     RDKit          3D

 47 48  0  0  0  0  0  0  0  0999 V2000
    4.6558    3.7640   -1.1264 C   0  0  0  0  0  0  0  0  0  0  0  0
    4.1952    2.6935   -1.8943 C   0  0  0  0  0  0  0  0  0  0  0  0
    4.4013    1.3739   -1.4639 C   0  0  0  0  0  0  0  0  0  0  0  0
    3.8320    0.2181   -2.2506 C   0  0  0  0  0  0  0  0  0  0  0  0
    2.3389   -0.0580   -2.0733 C   0  0  0  0  0  0  0  0  0  0  0  0
    1.7731   -0.8020   -2.8745 O   0  0  0  0  0  0  0  0  0  0  0  0
    1.7476    0.5321   -0.9716 N   0  0  0  0  0  0  0  0  0  0  0  0
    0.4055    0.4435   -0.5483 C   0  0  0  0  0  0  0  0  0  0  0  0
   -0.5740   -0.3100   -1.1960 C   0  0  0  0  0  0  0  0  0  0  0  0
   -1.8916   -0.3444   -0.7124 C   0  0  0  0  0  0  0  0  0  0  0  0
   -2.9210   -1.1914   -1.4005 C   0  0  0  0  0  0  0  0  0  0  0  0
   -2.2189    0.3708    0.4458 C   0  0  0  0  0  0  0  0  0  0  0  0
   -1.2553    1.1455    1.0992 C   0  0  0  0  0  0  0  0  0  0  0  0
   -1.5979    1.8995    2.3497 C   0  0  0  0  0  0  0  0  0  0  0  0
    0.0550    1.1657    0.6015 C   0  0  0  0  0  0  0  0  0  0  0  0
    5.0953    1.1442   -0.2672 C   0  0  0  0  0  0  0  0  0  0  0  0
    5.5535    2.2185    0.4957 C   0  0  0  0  0  0  0  0  0  0  0  0
    5.2955    3.5236    0.0853 C   0  0  0  0  0  0  0  0  0  0  0  0
    5.7853    4.5610    0.8216 O   0  0  0  0  0  0  0  0  0  0  0  0
    4.8786    5.1545    1.7942 C   0  0  0  0  0  0  0  0  0  0  0  0
    5.7454    6.1540    2.6633 C   0  0  0  0  0  0  0  0  0  0  0  0
    5.7794    7.3574    2.2625 O   0  0  0  0  0  0  0  0  0  0  0  0
    6.3173    5.6544    3.6802 O   0  0  0  0  0  1  0  0  0  0  0  0
    3.7680    5.9607    1.1076 C   0  0  0  0  0  0  0  0  0  0  0  0
    4.2631    4.1298    2.7599 C   0  0  0  0  0  0  0  0  0  0  0  0
    4.5180    4.7854   -1.4689 H   0  0  0  0  0  0  0  0  0  0  0  0
    3.6732    2.8990   -2.8260 H   0  0  0  0  0  0  0  0  0  0  0  0
    4.3670   -0.7047   -1.9964 H   0  0  0  0  0  0  0  0  0  0  0  0
    4.0129    0.4000   -3.3175 H   0  0  0  0  0  0  0  0  0  0  0  0
    2.3374    1.1245   -0.3972 H   0  0  0  0  0  0  0  0  0  0  0  0
   -0.3380   -0.8882   -2.0838 H   0  0  0  0  0  0  0  0  0  0  0  0
   -2.7570   -1.2001   -2.4828 H   0  0  0  0  0  0  0  0  0  0  0  0
   -3.9292   -0.8007   -1.2291 H   0  0  0  0  0  0  0  0  0  0  0  0
   -2.8729   -2.2187   -1.0255 H   0  0  0  0  0  0  0  0  0  0  0  0
   -3.2330    0.3277    0.8377 H   0  0  0  0  0  0  0  0  0  0  0  0
   -2.6689    2.1315    2.3886 H   0  0  0  0  0  0  0  0  0  0  0  0
   -1.0577    2.8522    2.3894 H   0  0  0  0  0  0  0  0  0  0  0  0
   -1.3353    1.3032    3.2297 H   0  0  0  0  0  0  0  0  0  0  0  0
    0.8057    1.7563    1.1253 H   0  0  0  0  0  0  0  0  0  0  0  0
    5.2834    0.1325    0.0843 H   0  0  0  0  0  0  0  0  0  0  0  0
    6.1077    2.0476    1.4152 H   0  0  0  0  0  0  0  0  0  0  0  0
    3.2215    6.5863    1.8224 H   0  0  0  0  0  0  0  0  0  0  0  0
    3.0352    5.3036    0.6278 H   0  0  0  0  0  0  0  0  0  0  0  0
    4.1730    6.6078    0.3216 H   0  0  0  0  0  0  0  0  0  0  0  0
    3.7410    4.6236    3.5879 H   0  0  0  0  0  0  0  0  0  0  0  0
    5.0252    3.4670    3.1851 H   0  0  0  0  0  0  0  0  0  0  0  0
    3.5335    3.4880    2.2524 H   0  0  0  0  0  0  0  0  0  0  0  0
 26  1  1  0
  1  2  2  0
  2 27  1  0
  2  3  1  0
  3  4  1  0
  4 28  1  0
  4 29  1  0
  4  5  1  0
  5  6  2  0
  5  7  1  0
  7 30  1  0
  7  8  1  0
  8  9  2  0
  9 31  1  0
  9 10  1  0
 10 11  1  0
 11 32  1  0
 11 33  1  0
 11 34  1  0
 10 12  2  0
 12 35  1  0
 12 13  1  0
 13 14  1  0
 14 36  1  0
 14 37  1  0
 14 38  1  0
  8 15  1  0
 13 15  2  0
 15 39  1  0
  3 16  2  0
 16 40  1  0
 16 17  1  0
 17 41  1  0
  1 18  1  0
 17 18  2  0
 18 19  1  0
 19 20  1  0
 20 21  1  0
 21 22  2  0
 21 23  1  0
 20 24  1  0
 24 42  1  0
 24 43  1  0
 24 44  1  0
 20 25  1  0
 25 45  1  0
 25 46  1  0
 25 47  1  0
M  CHG  1  23  -1
M  END
>  <conformer_energy>  (1) 
102.01000000000001

>  <ligand_smiles>  (1) 
Cc1cc(C)cc(NC(=O)Cc2ccc(OC(C)(C)C(=O)[O-])cc2)c1

>  <ligand_conf_name>  (1) 
MOL_0_isomer_0_conf_0

>  <ligand_molecule_name>  (1) 
MOL_0_isomer_0

>  <SMILES>  (1) 
Cc1cc(C)cc(NC(=O)Cc2ccc(OC(C)(C)C(=O)[O-])cc2)c1

$$$$
1G9V_ligand_con31
     RDKit          3D

 47 48  0  0  0  0  0  0  0  0999 V2000
    4.6252   -3.3605   -1.0299 C   0  0  0  0  0  0  0  0  0  0  0  0
    4.1665   -2.2341   -1.7143 C   0  0  0  0  0  0  0  0  0  0  0  0
    4.2340   -0.9672   -1.1159 C   0  0  0  0  0  0  0  0  0  0  0  0
    3.6728    0.2425   -1.8240 C   0  0  0  0  0  0  0  0  0  0  0  0
    2.1516    0.3880   -1.8245 C   0  0  0  0  0  0  0  0  0  0  0  0
    1.6264    1.1478   -2.6389 O   0  0  0  0  0  0  0  0  0  0  0  0
    1.4842   -0.3274   -0.8475 N   0  0  0  0  0  0  0  0  0  0  0  0
    0.1011   -0.3486   -0.5730 C   0  0  0  0  0  0  0  0  0  0  0  0
   -0.8445    0.4296   -1.2413 C   0  0  0  0  0  0  0  0  0  0  0  0
   -2.2056    0.3534   -0.9058 C   0  0  0  0  0  0  0  0  0  0  0  0
   -3.2028    1.2276   -1.6072 C   0  0  0  0  0  0  0  0  0  0  0  0
   -2.6128   -0.5000    0.1260 C   0  0  0  0  0  0  0  0  0  0  0  0
   -1.6822   -1.2988    0.7975 C   0  0  0  0  0  0  0  0  0  0  0  0
   -2.1147   -2.1962    1.9194 C   0  0  0  0  0  0  0  0  0  0  0  0
   -0.3280   -1.2074    0.4480 C   0  0  0  0  0  0  0  0  0  0  0  0
    4.7644   -0.8489    0.1776 C   0  0  0  0  0  0  0  0  0  0  0  0
    5.2209   -1.9787    0.8567 C   0  0  0  0  0  0  0  0  0  0  0  0
    5.1789   -3.2255    0.2398 C   0  0  0  0  0  0  0  0  0  0  0  0
    5.5473   -4.3347    0.9418 O   0  0  0  0  0  0  0  0  0  0  0  0
    6.9300   -4.7674    0.8029 C   0  0  0  0  0  0  0  0  0  0  0  0
    7.1086   -6.0072    1.7703 C   0  0  0  0  0  0  0  0  0  0  0  0
    7.4470   -5.7391    2.9633 O   0  0  0  0  0  0  0  0  0  0  0  0
    6.9006   -7.1491    1.2593 O   0  0  0  0  0  1  0  0  0  0  0  0
    7.2479   -5.2326   -0.6247 C   0  0  0  0  0  0  0  0  0  0  0  0
    7.9359   -3.6939    1.2438 C   0  0  0  0  0  0  0  0  0  0  0  0
    4.5445   -4.3469   -1.4782 H   0  0  0  0  0  0  0  0  0  0  0  0
    3.7395   -2.3582   -2.7068 H   0  0  0  0  0  0  0  0  0  0  0  0
    4.0081    0.2202   -2.8689 H   0  0  0  0  0  0  0  0  0  0  0  0
    4.0865    1.1579   -1.3827 H   0  0  0  0  0  0  0  0  0  0  0  0
    2.0450   -0.9404   -0.2654 H   0  0  0  0  0  0  0  0  0  0  0  0
   -0.5477    1.1142   -2.0293 H   0  0  0  0  0  0  0  0  0  0  0  0
   -2.9148    1.3876   -2.6516 H   0  0  0  0  0  0  0  0  0  0  0  0
   -3.2689    2.1974   -1.1044 H   0  0  0  0  0  0  0  0  0  0  0  0
   -4.1950    0.7637   -1.6123 H   0  0  0  0  0  0  0  0  0  0  0  0
   -3.6632   -0.5445    0.4062 H   0  0  0  0  0  0  0  0  0  0  0  0
   -3.1481   -2.5301    1.7778 H   0  0  0  0  0  0  0  0  0  0  0  0
   -2.0431   -1.6635    2.8729 H   0  0  0  0  0  0  0  0  0  0  0  0
   -1.4878   -3.0932    1.9651 H   0  0  0  0  0  0  0  0  0  0  0  0
    0.3950   -1.8196    0.9846 H   0  0  0  0  0  0  0  0  0  0  0  0
    4.8125    0.1168    0.6751 H   0  0  0  0  0  0  0  0  0  0  0  0
    5.6052   -1.8951    1.8697 H   0  0  0  0  0  0  0  0  0  0  0  0
    8.2143   -5.7470   -0.6740 H   0  0  0  0  0  0  0  0  0  0  0  0
    7.2952   -4.3866   -1.3195 H   0  0  0  0  0  0  0  0  0  0  0  0
    6.4762   -5.9112   -1.0054 H   0  0  0  0  0  0  0  0  0  0  0  0
    8.9501   -4.1017    1.3223 H   0  0  0  0  0  0  0  0  0  0  0  0
    7.6643   -3.2632    2.2140 H   0  0  0  0  0  0  0  0  0  0  0  0
    7.9743   -2.8639    0.5295 H   0  0  0  0  0  0  0  0  0  0  0  0
 26  1  1  0
  1  2  2  0
  2 27  1  0
  2  3  1  0
  3  4  1  0
  4 28  1  0
  4 29  1  0
  4  5  1  0
  5  6  2  0
  5  7  1  0
  7 30  1  0
  7  8  1  0
  8  9  2  0
  9 31  1  0
  9 10  1  0
 10 11  1  0
 11 32  1  0
 11 33  1  0
 11 34  1  0
 10 12  2  0
 12 35  1  0
 12 13  1  0
 13 14  1  0
 14 36  1  0
 14 37  1  0
 14 38  1  0
  8 15  1  0
 13 15  2  0
 15 39  1  0
  3 16  2  0
 16 40  1  0
 16 17  1  0
 17 41  1  0
  1 18  1  0
 17 18  2  0
 18 19  1  0
 19 20  1  0
 20 21  1  0
 21 22  2  0
 21 23  1  0
 20 24  1  0
 24 42  1  0
 24 43  1  0
 24 44  1  0
 20 25  1  0
 25 45  1  0
 25 46  1  0
 25 47  1  0
M  CHG  1  23  -1
M  END
>  <conformer_energy>  (1) 
102.01000000000001

>  <ligand_smiles>  (1) 
Cc1cc(C)cc(NC(=O)Cc2ccc(OC(C)(C)C(=O)[O-])cc2)c1

>  <ligand_conf_name>  (1) 
MOL_0_isomer_0_conf_0

>  <ligand_molecule_name>  (1) 
MOL_0_isomer_0

>  <SMILES>  (1) 
Cc1cc(C)cc(NC(=O)Cc2ccc(OC(C)(C)C(=O)[O-])cc2)c1

$$$$
1G9V_ligand_con32
     RDKit          3D

 47 48  0  0  0  0  0  0  0  0999 V2000
    4.6241   -3.3567   -1.0345 C   0  0  0  0  0  0  0  0  0  0  0  0
    4.1662   -2.2270   -1.7140 C   0  0  0  0  0  0  0  0  0  0  0  0
    4.2344   -0.9629   -1.1099 C   0  0  0  0  0  0  0  0  0  0  0  0
    3.6739    0.2502   -1.8131 C   0  0  0  0  0  0  0  0  0  0  0  0
    2.1527    0.3945   -1.8158 C   0  0  0  0  0  0  0  0  0  0  0  0
    1.6282    1.1564   -2.6289 O   0  0  0  0  0  0  0  0  0  0  0  0
    1.4843   -0.3244   -0.8421 N   0  0  0  0  0  0  0  0  0  0  0  0
    0.1008   -0.3476   -0.5694 C   0  0  0  0  0  0  0  0  0  0  0  0
   -0.8450    0.4299   -1.2388 C   0  0  0  0  0  0  0  0  0  0  0  0
   -2.2063    0.3523   -0.9044 C   0  0  0  0  0  0  0  0  0  0  0  0
   -3.2033    1.2267   -1.6063 C   0  0  0  0  0  0  0  0  0  0  0  0
   -2.6136   -0.5016    0.1271 C   0  0  0  0  0  0  0  0  0  0  0  0
   -1.6830   -1.3004    0.7988 C   0  0  0  0  0  0  0  0  0  0  0  0
   -2.1150   -2.1977    1.9212 C   0  0  0  0  0  0  0  0  0  0  0  0
   -0.3285   -1.2080    0.4502 C   0  0  0  0  0  0  0  0  0  0  0  0
    4.7652   -0.8504    0.1839 C   0  0  0  0  0  0  0  0  0  0  0  0
    5.2212   -1.9837    0.8581 C   0  0  0  0  0  0  0  0  0  0  0  0
    5.1781   -3.2277    0.2358 C   0  0  0  0  0  0  0  0  0  0  0  0
    5.5454   -4.3408    0.9320 O   0  0  0  0  0  0  0  0  0  0  0  0
    6.9290   -4.7714    0.7947 C   0  0  0  0  0  0  0  0  0  0  0  0
    7.1011   -6.0272    1.7430 C   0  0  0  0  0  0  0  0  0  0  0  0
    6.8795   -7.1596    1.2161 O   0  0  0  0  0  0  0  0  0  0  0  0
    7.4486   -5.7804    2.9380 O   0  0  0  0  0  1  0  0  0  0  0  0
    7.2563   -5.2165   -0.6371 C   0  0  0  0  0  0  0  0  0  0  0  0
    7.9308   -3.7038    1.2579 C   0  0  0  0  0  0  0  0  0  0  0  0
    4.5439   -4.3410   -1.4882 H   0  0  0  0  0  0  0  0  0  0  0  0
    3.7391   -2.3462   -2.7073 H   0  0  0  0  0  0  0  0  0  0  0  0
    4.0115    0.2332   -2.8571 H   0  0  0  0  0  0  0  0  0  0  0  0
    4.0862    1.1637   -1.3668 H   0  0  0  0  0  0  0  0  0  0  0  0
    2.0447   -0.9391   -0.2615 H   0  0  0  0  0  0  0  0  0  0  0  0
   -0.5480    1.1149   -2.0269 H   0  0  0  0  0  0  0  0  0  0  0  0
   -2.9169    1.3827   -2.6516 H   0  0  0  0  0  0  0  0  0  0  0  0
   -3.2656    2.1977   -1.1060 H   0  0  0  0  0  0  0  0  0  0  0  0
   -4.1968    0.7656   -1.6080 H   0  0  0  0  0  0  0  0  0  0  0  0
   -3.6640   -0.5467    0.4071 H   0  0  0  0  0  0  0  0  0  0  0  0
   -3.1532   -2.5210    1.7878 H   0  0  0  0  0  0  0  0  0  0  0  0
   -2.0297   -1.6692    2.8761 H   0  0  0  0  0  0  0  0  0  0  0  0
   -1.4961   -3.1003    1.9571 H   0  0  0  0  0  0  0  0  0  0  0  0
    0.3945   -1.8200    0.9870 H   0  0  0  0  0  0  0  0  0  0  0  0
    4.8142    0.1135    0.6851 H   0  0  0  0  0  0  0  0  0  0  0  0
    5.6059   -1.9045    1.8713 H   0  0  0  0  0  0  0  0  0  0  0  0
    8.2229   -5.7307   -0.6878 H   0  0  0  0  0  0  0  0  0  0  0  0
    7.3084   -4.3610   -1.3191 H   0  0  0  0  0  0  0  0  0  0  0  0
    6.4871   -5.8892   -1.0329 H   0  0  0  0  0  0  0  0  0  0  0  0
    8.9452   -4.1116    1.3357 H   0  0  0  0  0  0  0  0  0  0  0  0
    7.6528   -3.2890    2.2332 H   0  0  0  0  0  0  0  0  0  0  0  0
    7.9718   -2.8629    0.5568 H   0  0  0  0  0  0  0  0  0  0  0  0
 26  1  1  0
  1  2  2  0
  2 27  1  0
  2  3  1  0
  3  4  1  0
  4 28  1  0
  4 29  1  0
  4  5  1  0
  5  6  2  0
  5  7  1  0
  7 30  1  0
  7  8  1  0
  8  9  2  0
  9 31  1  0
  9 10  1  0
 10 11  1  0
 11 32  1  0
 11 33  1  0
 11 34  1  0
 10 12  2  0
 12 35  1  0
 12 13  1  0
 13 14  1  0
 14 36  1  0
 14 37  1  0
 14 38  1  0
  8 15  1  0
 13 15  2  0
 15 39  1  0
  3 16  2  0
 16 40  1  0
 16 17  1  0
 17 41  1  0
  1 18  1  0
 17 18  2  0
 18 19  1  0
 19 20  1  0
 20 21  1  0
 21 22  2  0
 21 23  1  0
 20 24  1  0
 24 42  1  0
 24 43  1  0
 24 44  1  0
 20 25  1  0
 25 45  1  0
 25 46  1  0
 25 47  1  0
M  CHG  1  23  -1
M  END
>  <conformer_energy>  (1) 
102.01000000000001

>  <ligand_smiles>  (1) 
Cc1cc(C)cc(NC(=O)Cc2ccc(OC(C)(C)C(=O)[O-])cc2)c1

>  <ligand_conf_name>  (1) 
MOL_0_isomer_0_conf_0

>  <ligand_molecule_name>  (1) 
MOL_0_isomer_0

>  <SMILES>  (1) 
Cc1cc(C)cc(NC(=O)Cc2ccc(OC(C)(C)C(=O)[O-])cc2)c1

$$$$
1G9V_ligand_con33
     RDKit          3D

 47 48  0  0  0  0  0  0  0  0999 V2000
    5.2303    1.2250   -4.2686 C   0  0  0  0  0  0  0  0  0  0  0  0
    4.3199    1.9259   -3.4760 C   0  0  0  0  0  0  0  0  0  0  0  0
    4.0509    1.5098   -2.1645 C   0  0  0  0  0  0  0  0  0  0  0  0
    3.0732    2.2805   -1.3160 C   0  0  0  0  0  0  0  0  0  0  0  0
    1.6382    1.8000   -1.4774 C   0  0  0  0  0  0  0  0  0  0  0  0
    0.8834    2.3401   -2.2818 O   0  0  0  0  0  0  0  0  0  0  0  0
    1.3189    0.7618   -0.6129 N   0  0  0  0  0  0  0  0  0  0  0  0
    0.0920    0.0751   -0.4992 C   0  0  0  0  0  0  0  0  0  0  0  0
   -1.0218    0.3255   -1.3020 C   0  0  0  0  0  0  0  0  0  0  0  0
   -2.1998   -0.4218   -1.1513 C   0  0  0  0  0  0  0  0  0  0  0  0
   -3.3887   -0.1579   -2.0281 C   0  0  0  0  0  0  0  0  0  0  0  0
   -2.2664   -1.4108   -0.1614 C   0  0  0  0  0  0  0  0  0  0  0  0
   -1.1697   -1.6632    0.6690 C   0  0  0  0  0  0  0  0  0  0  0  0
   -1.2401   -2.7443    1.7069 C   0  0  0  0  0  0  0  0  0  0  0  0
    0.0111   -0.9285    0.4777 C   0  0  0  0  0  0  0  0  0  0  0  0
    4.6827    0.3574   -1.6739 C   0  0  0  0  0  0  0  0  0  0  0  0
    5.5861   -0.3452   -2.4737 C   0  0  0  0  0  0  0  0  0  0  0  0
    5.8890    0.1138   -3.7519 C   0  0  0  0  0  0  0  0  0  0  0  0
    6.7300   -0.6010   -4.5542 O   0  0  0  0  0  0  0  0  0  0  0  0
    8.1493   -0.2876   -4.4616 C   0  0  0  0  0  0  0  0  0  0  0  0
    8.9013   -1.2689   -5.4530 C   0  0  0  0  0  0  0  0  0  0  0  0
    8.9073   -2.4948   -5.1190 O   0  0  0  0  0  0  0  0  0  0  0  0
    9.4338   -0.7375   -6.4735 O   0  0  0  0  0  1  0  0  0  0  0  0
    8.4476    1.1701   -4.8412 C   0  0  0  0  0  0  0  0  0  0  0  0
    8.7373   -0.6078   -3.0787 C   0  0  0  0  0  0  0  0  0  0  0  0
    5.4262    1.5381   -5.2896 H   0  0  0  0  0  0  0  0  0  0  0  0
    3.8172    2.7958   -3.8930 H   0  0  0  0  0  0  0  0  0  0  0  0
    3.1035    3.3446   -1.5919 H   0  0  0  0  0  0  0  0  0  0  0  0
    3.3717    2.2438   -0.2580 H   0  0  0  0  0  0  0  0  0  0  0  0
    2.0617    0.4315   -0.0081 H   0  0  0  0  0  0  0  0  0  0  0  0
   -0.9936    1.0912   -2.0692 H   0  0  0  0  0  0  0  0  0  0  0  0
   -3.1302    0.4975   -2.8730 H   0  0  0  0  0  0  0  0  0  0  0  0
   -4.1794    0.3267   -1.4470 H   0  0  0  0  0  0  0  0  0  0  0  0
   -3.7667   -1.0993   -2.4439 H   0  0  0  0  0  0  0  0  0  0  0  0
   -3.1809   -1.9853   -0.0394 H   0  0  0  0  0  0  0  0  0  0  0  0
   -2.2435   -2.7739    2.1513 H   0  0  0  0  0  0  0  0  0  0  0  0
   -0.5254   -2.5554    2.5204 H   0  0  0  0  0  0  0  0  0  0  0  0
   -1.0177   -3.7149    1.2524 H   0  0  0  0  0  0  0  0  0  0  0  0
    0.8716   -1.1435    1.1068 H   0  0  0  0  0  0  0  0  0  0  0  0
    4.4812   -0.0107   -0.6734 H   0  0  0  0  0  0  0  0  0  0  0  0
    6.0537   -1.2541   -2.1089 H   0  0  0  0  0  0  0  0  0  0  0  0
    9.5255    1.3560   -4.9182 H   0  0  0  0  0  0  0  0  0  0  0  0
    8.0505    1.8674   -4.0933 H   0  0  0  0  0  0  0  0  0  0  0  0
    7.9856    1.4337   -5.8007 H   0  0  0  0  0  0  0  0  0  0  0  0
    9.8337   -0.5729   -3.0922 H   0  0  0  0  0  0  0  0  0  0  0  0
    8.4298   -1.6027   -2.7306 H   0  0  0  0  0  0  0  0  0  0  0  0
    8.3982    0.1122   -2.3227 H   0  0  0  0  0  0  0  0  0  0  0  0
 26  1  1  0
  1  2  2  0
  2 27  1  0
  2  3  1  0
  3  4  1  0
  4 28  1  0
  4 29  1  0
  4  5  1  0
  5  6  2  0
  5  7  1  0
  7 30  1  0
  7  8  1  0
  8  9  2  0
  9 31  1  0
  9 10  1  0
 10 11  1  0
 11 32  1  0
 11 33  1  0
 11 34  1  0
 10 12  2  0
 12 35  1  0
 12 13  1  0
 13 14  1  0
 14 36  1  0
 14 37  1  0
 14 38  1  0
  8 15  1  0
 13 15  2  0
 15 39  1  0
  3 16  2  0
 16 40  1  0
 16 17  1  0
 17 41  1  0
  1 18  1  0
 17 18  2  0
 18 19  1  0
 19 20  1  0
 20 21  1  0
 21 22  2  0
 21 23  1  0
 20 24  1  0
 24 42  1  0
 24 43  1  0
 24 44  1  0
 20 25  1  0
 25 45  1  0
 25 46  1  0
 25 47  1  0
M  CHG  1  23  -1
M  END
>  <conformer_energy>  (1) 
102.01000000000001

>  <ligand_smiles>  (1) 
Cc1cc(C)cc(NC(=O)Cc2ccc(OC(C)(C)C(=O)[O-])cc2)c1

>  <ligand_conf_name>  (1) 
MOL_0_isomer_0_conf_0

>  <ligand_molecule_name>  (1) 
MOL_0_isomer_0

>  <SMILES>  (1) 
Cc1cc(C)cc(NC(=O)Cc2ccc(OC(C)(C)C(=O)[O-])cc2)c1

$$$$
1G9V_ligand_con34
     RDKit          3D

 47 48  0  0  0  0  0  0  0  0999 V2000
    5.2411    1.2435   -4.2549 C   0  0  0  0  0  0  0  0  0  0  0  0
    4.3364    1.9434   -3.4538 C   0  0  0  0  0  0  0  0  0  0  0  0
    4.0668    1.5145   -2.1433 C   0  0  0  0  0  0  0  0  0  0  0  0
    3.0849    2.2754   -1.2902 C   0  0  0  0  0  0  0  0  0  0  0  0
    1.6512    1.7948   -1.4673 C   0  0  0  0  0  0  0  0  0  0  0  0
    0.9031    2.3349   -2.2783 O   0  0  0  0  0  0  0  0  0  0  0  0
    1.3270    0.7526   -0.6112 N   0  0  0  0  0  0  0  0  0  0  0  0
    0.0979    0.0684   -0.5082 C   0  0  0  0  0  0  0  0  0  0  0  0
   -0.9958    0.2978   -1.3466 C   0  0  0  0  0  0  0  0  0  0  0  0
   -2.1839   -0.4334   -1.1920 C   0  0  0  0  0  0  0  0  0  0  0  0
   -3.3540   -0.1921   -2.1037 C   0  0  0  0  0  0  0  0  0  0  0  0
   -2.2779   -1.3861   -0.1684 C   0  0  0  0  0  0  0  0  0  0  0  0
   -1.1997   -1.6166    0.6937 C   0  0  0  0  0  0  0  0  0  0  0  0
   -1.2956   -2.6482    1.7821 C   0  0  0  0  0  0  0  0  0  0  0  0
   -0.0100   -0.9000    0.5015 C   0  0  0  0  0  0  0  0  0  0  0  0
    4.6954    0.3538   -1.6627 C   0  0  0  0  0  0  0  0  0  0  0  0
    5.5934   -0.3480   -2.4711 C   0  0  0  0  0  0  0  0  0  0  0  0
    5.8944    0.1211   -3.7485 C   0  0  0  0  0  0  0  0  0  0  0  0
    6.7195   -0.5960   -4.5642 O   0  0  0  0  0  0  0  0  0  0  0  0
    8.1436   -0.3075   -4.4748 C   0  0  0  0  0  0  0  0  0  0  0  0
    8.8677   -1.2706   -5.5004 C   0  0  0  0  0  0  0  0  0  0  0  0
    9.3860   -0.7218   -6.5201 O   0  0  0  0  0  0  0  0  0  0  0  0
    8.8625   -2.5029   -5.1957 O   0  0  0  0  0  1  0  0  0  0  0  0
    8.4610    1.1549   -4.8180 C   0  0  0  0  0  0  0  0  0  0  0  0
    8.7371   -0.6731   -3.1060 C   0  0  0  0  0  0  0  0  0  0  0  0
    5.4351    1.5643   -5.2763 H   0  0  0  0  0  0  0  0  0  0  0  0
    3.8352    2.8188   -3.8665 H   0  0  0  0  0  0  0  0  0  0  0  0
    3.1185    3.3419   -1.5457 H   0  0  0  0  0  0  0  0  0  0  0  0
    3.3754    2.2192   -0.2339 H   0  0  0  0  0  0  0  0  0  0  0  0
    2.0602    0.4338    0.0089 H   0  0  0  0  0  0  0  0  0  0  0  0
   -0.9423    1.0333   -2.1466 H   0  0  0  0  0  0  0  0  0  0  0  0
   -3.0956    0.4883   -2.9217 H   0  0  0  0  0  0  0  0  0  0  0  0
   -4.1832    0.2522   -1.5420 H   0  0  0  0  0  0  0  0  0  0  0  0
   -3.6848   -1.1356   -2.5517 H   0  0  0  0  0  0  0  0  0  0  0  0
   -3.2007   -1.9497   -0.0455 H   0  0  0  0  0  0  0  0  0  0  0  0
   -2.3438   -2.8270    2.0622 H   0  0  0  0  0  0  0  0  0  0  0  0
   -0.7746   -2.2990    2.6821 H   0  0  0  0  0  0  0  0  0  0  0  0
   -0.8518   -3.5972    1.4518 H   0  0  0  0  0  0  0  0  0  0  0  0
    0.8332   -1.0998    1.1600 H   0  0  0  0  0  0  0  0  0  0  0  0
    4.4907   -0.0275   -0.6647 H   0  0  0  0  0  0  0  0  0  0  0  0
    6.0548   -1.2665   -2.1150 H   0  0  0  0  0  0  0  0  0  0  0  0
    9.5404    1.3269   -4.9002 H   0  0  0  0  0  0  0  0  0  0  0  0
    8.0834    1.8369   -4.0466 H   0  0  0  0  0  0  0  0  0  0  0  0
    7.9918    1.4514   -5.7634 H   0  0  0  0  0  0  0  0  0  0  0  0
    9.8333   -0.6690   -3.1292 H   0  0  0  0  0  0  0  0  0  0  0  0
    8.4065   -1.6633   -2.7734 H   0  0  0  0  0  0  0  0  0  0  0  0
    8.4265    0.0398   -2.3343 H   0  0  0  0  0  0  0  0  0  0  0  0
 26  1  1  0
  1  2  2  0
  2 27  1  0
  2  3  1  0
  3  4  1  0
  4 28  1  0
  4 29  1  0
  4  5  1  0
  5  6  2  0
  5  7  1  0
  7 30  1  0
  7  8  1  0
  8  9  2  0
  9 31  1  0
  9 10  1  0
 10 11  1  0
 11 32  1  0
 11 33  1  0
 11 34  1  0
 10 12  2  0
 12 35  1  0
 12 13  1  0
 13 14  1  0
 14 36  1  0
 14 37  1  0
 14 38  1  0
  8 15  1  0
 13 15  2  0
 15 39  1  0
  3 16  2  0
 16 40  1  0
 16 17  1  0
 17 41  1  0
  1 18  1  0
 17 18  2  0
 18 19  1  0
 19 20  1  0
 20 21  1  0
 21 22  2  0
 21 23  1  0
 20 24  1  0
 24 42  1  0
 24 43  1  0
 24 44  1  0
 20 25  1  0
 25 45  1  0
 25 46  1  0
 25 47  1  0
M  CHG  1  23  -1
M  END
>  <conformer_energy>  (1) 
102.01000000000001

>  <ligand_smiles>  (1) 
Cc1cc(C)cc(NC(=O)Cc2ccc(OC(C)(C)C(=O)[O-])cc2)c1

>  <ligand_conf_name>  (1) 
MOL_0_isomer_0_conf_0

>  <ligand_molecule_name>  (1) 
MOL_0_isomer_0

>  <SMILES>  (1) 
Cc1cc(C)cc(NC(=O)Cc2ccc(OC(C)(C)C(=O)[O-])cc2)c1

$$$$
1G9V_ligand_con35
     RDKit          3D

 47 48  0  0  0  0  0  0  0  0999 V2000
    5.3600   -2.8007   -0.0828 C   0  0  0  0  0  0  0  0  0  0  0  0
    5.0231   -1.4521   -0.1981 C   0  0  0  0  0  0  0  0  0  0  0  0
    4.3170   -0.9953   -1.3223 C   0  0  0  0  0  0  0  0  0  0  0  0
    3.8721    0.4453   -1.4135 C   0  0  0  0  0  0  0  0  0  0  0  0
    2.3572    0.6375   -1.4473 C   0  0  0  0  0  0  0  0  0  0  0  0
    1.8651    1.5018   -2.1727 O   0  0  0  0  0  0  0  0  0  0  0  0
    1.6664   -0.1866   -0.5747 N   0  0  0  0  0  0  0  0  0  0  0  0
    0.2757   -0.2516   -0.3550 C   0  0  0  0  0  0  0  0  0  0  0  0
   -0.6558    0.5814   -0.9776 C   0  0  0  0  0  0  0  0  0  0  0  0
   -2.0288    0.4444   -0.7183 C   0  0  0  0  0  0  0  0  0  0  0  0
   -3.0122    1.3689   -1.3763 C   0  0  0  0  0  0  0  0  0  0  0  0
   -2.4633   -0.5221    0.1958 C   0  0  0  0  0  0  0  0  0  0  0  0
   -1.5459   -1.3735    0.8211 C   0  0  0  0  0  0  0  0  0  0  0  0
   -2.0027   -2.4103    1.8067 C   0  0  0  0  0  0  0  0  0  0  0  0
   -0.1795   -1.2246    0.5448 C   0  0  0  0  0  0  0  0  0  0  0  0
    3.9935   -1.9009   -2.3460 C   0  0  0  0  0  0  0  0  0  0  0  0
    4.3283   -3.2494   -2.2245 C   0  0  0  0  0  0  0  0  0  0  0  0
    4.9772   -3.6954   -1.0781 C   0  0  0  0  0  0  0  0  0  0  0  0
    5.3117   -5.0086   -0.9623 O   0  0  0  0  0  0  0  0  0  0  0  0
    4.3541   -5.8619   -0.2760 C   0  0  0  0  0  0  0  0  0  0  0  0
    5.1110   -6.6170    0.8778 C   0  0  0  0  0  0  0  0  0  0  0  0
    5.0812   -7.8855    0.8258 O   0  0  0  0  0  0  0  0  0  0  0  0
    5.6419   -5.8785    1.7671 O   0  0  0  0  0  1  0  0  0  0  0  0
    3.1656   -5.1826    0.4364 C   0  0  0  0  0  0  0  0  0  0  0  0
    3.8176   -6.8329   -1.3374 C   0  0  0  0  0  0  0  0  0  0  0  0
    5.8927   -3.1752    0.7905 H   0  0  0  0  0  0  0  0  0  0  0  0
    5.3102   -0.7729    0.6002 H   0  0  0  0  0  0  0  0  0  0  0  0
    4.2995    0.8829   -2.3236 H   0  0  0  0  0  0  0  0  0  0  0  0
    4.2565    1.0256   -0.5663 H   0  0  0  0  0  0  0  0  0  0  0  0
    2.2198   -0.8674   -0.0652 H   0  0  0  0  0  0  0  0  0  0  0  0
   -0.3391    1.3471   -1.6781 H   0  0  0  0  0  0  0  0  0  0  0  0
   -2.6777    1.6382   -2.3837 H   0  0  0  0  0  0  0  0  0  0  0  0
   -3.1220    2.2815   -0.7821 H   0  0  0  0  0  0  0  0  0  0  0  0
   -3.9927    0.8911   -1.4777 H   0  0  0  0  0  0  0  0  0  0  0  0
   -3.5242   -0.6156    0.4173 H   0  0  0  0  0  0  0  0  0  0  0  0
   -3.0730   -2.6145    1.7017 H   0  0  0  0  0  0  0  0  0  0  0  0
   -1.8148   -2.0679    2.8273 H   0  0  0  0  0  0  0  0  0  0  0  0
   -1.4737   -3.3534    1.6418 H   0  0  0  0  0  0  0  0  0  0  0  0
    0.5306   -1.8882    1.0369 H   0  0  0  0  0  0  0  0  0  0  0  0
    3.4641   -1.5674   -3.2362 H   0  0  0  0  0  0  0  0  0  0  0  0
    4.0780   -3.9551   -3.0115 H   0  0  0  0  0  0  0  0  0  0  0  0
    2.5455   -5.9191    0.9605 H   0  0  0  0  0  0  0  0  0  0  0  0
    2.5169   -4.6559   -0.2764 H   0  0  0  0  0  0  0  0  0  0  0  0
    3.4895   -4.4476    1.1829 H   0  0  0  0  0  0  0  0  0  0  0  0
    3.1150   -7.5591   -0.9146 H   0  0  0  0  0  0  0  0  0  0  0  0
    4.6340   -7.3854   -1.8143 H   0  0  0  0  0  0  0  0  0  0  0  0
    3.3022   -6.2890   -2.1370 H   0  0  0  0  0  0  0  0  0  0  0  0
 26  1  1  0
  1  2  2  0
  2 27  1  0
  2  3  1  0
  3  4  1  0
  4 28  1  0
  4 29  1  0
  4  5  1  0
  5  6  2  0
  5  7  1  0
  7 30  1  0
  7  8  1  0
  8  9  2  0
  9 31  1  0
  9 10  1  0
 10 11  1  0
 11 32  1  0
 11 33  1  0
 11 34  1  0
 10 12  2  0
 12 35  1  0
 12 13  1  0
 13 14  1  0
 14 36  1  0
 14 37  1  0
 14 38  1  0
  8 15  1  0
 13 15  2  0
 15 39  1  0
  3 16  2  0
 16 40  1  0
 16 17  1  0
 17 41  1  0
  1 18  1  0
 17 18  2  0
 18 19  1  0
 19 20  1  0
 20 21  1  0
 21 22  2  0
 21 23  1  0
 20 24  1  0
 24 42  1  0
 24 43  1  0
 24 44  1  0
 20 25  1  0
 25 45  1  0
 25 46  1  0
 25 47  1  0
M  CHG  1  23  -1
M  END
>  <conformer_energy>  (1) 
102.01000000000001

>  <ligand_smiles>  (1) 
Cc1cc(C)cc(NC(=O)Cc2ccc(OC(C)(C)C(=O)[O-])cc2)c1

>  <ligand_conf_name>  (1) 
MOL_0_isomer_0_conf_0

>  <ligand_molecule_name>  (1) 
MOL_0_isomer_0

>  <SMILES>  (1) 
Cc1cc(C)cc(NC(=O)Cc2ccc(OC(C)(C)C(=O)[O-])cc2)c1

$$$$
1G9V_ligand_con36
     RDKit          3D

 47 48  0  0  0  0  0  0  0  0999 V2000
    5.3055   -2.8730   -0.1000 C   0  0  0  0  0  0  0  0  0  0  0  0
    4.9915   -1.5131   -0.1488 C   0  0  0  0  0  0  0  0  0  0  0  0
    4.3385   -0.9791   -1.2760 C   0  0  0  0  0  0  0  0  0  0  0  0
    3.9161    0.4728   -1.2981 C   0  0  0  0  0  0  0  0  0  0  0  0
    2.4029    0.6813   -1.3347 C   0  0  0  0  0  0  0  0  0  0  0  0
    1.9195    1.5623   -2.0461 O   0  0  0  0  0  0  0  0  0  0  0  0
    1.7040   -0.1543   -0.4792 N   0  0  0  0  0  0  0  0  0  0  0  0
    0.3115   -0.2250   -0.2714 C   0  0  0  0  0  0  0  0  0  0  0  0
   -0.6170    0.6128   -0.8950 C   0  0  0  0  0  0  0  0  0  0  0  0
   -1.9930    0.4639   -0.6544 C   0  0  0  0  0  0  0  0  0  0  0  0
   -2.9742    1.3832   -1.3267 C   0  0  0  0  0  0  0  0  0  0  0  0
   -2.4336   -0.5165    0.2447 C   0  0  0  0  0  0  0  0  0  0  0  0
   -1.5187   -1.3733    0.8697 C   0  0  0  0  0  0  0  0  0  0  0  0
   -1.9814   -2.4268    1.8351 C   0  0  0  0  0  0  0  0  0  0  0  0
   -0.1498   -1.2138    0.6108 C   0  0  0  0  0  0  0  0  0  0  0  0
    4.0310   -1.8218   -2.3594 C   0  0  0  0  0  0  0  0  0  0  0  0
    4.3380   -3.1826   -2.3008 C   0  0  0  0  0  0  0  0  0  0  0  0
    4.9401   -3.7056   -1.1578 C   0  0  0  0  0  0  0  0  0  0  0  0
    5.2356   -5.0356   -1.1179 O   0  0  0  0  0  0  0  0  0  0  0  0
    4.2975   -5.8842   -0.3946 C   0  0  0  0  0  0  0  0  0  0  0  0
    5.0461   -6.5729    0.8080 C   0  0  0  0  0  0  0  0  0  0  0  0
    5.6099   -5.7862    1.6316 O   0  0  0  0  0  0  0  0  0  0  0  0
    4.9678   -7.8446    0.8614 O   0  0  0  0  0  1  0  0  0  0  0  0
    3.0733   -5.2143    0.2619 C   0  0  0  0  0  0  0  0  0  0  0  0
    3.8085   -6.9063   -1.4313 C   0  0  0  0  0  0  0  0  0  0  0  0
    5.7973   -3.3045    0.7743 H   0  0  0  0  0  0  0  0  0  0  0  0
    5.2529   -0.8868    0.7056 H   0  0  0  0  0  0  0  0  0  0  0  0
    4.3562    0.9476   -2.1841 H   0  0  0  0  0  0  0  0  0  0  0  0
    4.3008    1.0063   -0.4197 H   0  0  0  0  0  0  0  0  0  0  0  0
    2.2514   -0.8535    0.0132 H   0  0  0  0  0  0  0  0  0  0  0  0
   -0.2959    1.3823   -1.5905 H   0  0  0  0  0  0  0  0  0  0  0  0
   -2.6300    1.6433   -2.3361 H   0  0  0  0  0  0  0  0  0  0  0  0
   -3.0850    2.3007   -0.7372 H   0  0  0  0  0  0  0  0  0  0  0  0
   -3.9553    0.9040   -1.4315 H   0  0  0  0  0  0  0  0  0  0  0  0
   -3.4961   -0.6192    0.4536 H   0  0  0  0  0  0  0  0  0  0  0  0
   -3.0420   -2.6580    1.6912 H   0  0  0  0  0  0  0  0  0  0  0  0
   -1.8340   -2.0887    2.8662 H   0  0  0  0  0  0  0  0  0  0  0  0
   -1.4245   -3.3577    1.6787 H   0  0  0  0  0  0  0  0  0  0  0  0
    0.5573   -1.8831    1.1005 H   0  0  0  0  0  0  0  0  0  0  0  0
    3.5360   -1.4294   -3.2484 H   0  0  0  0  0  0  0  0  0  0  0  0
    4.1025   -3.8412   -3.1352 H   0  0  0  0  0  0  0  0  0  0  0  0
    2.4563   -5.9510    0.7886 H   0  0  0  0  0  0  0  0  0  0  0  0
    2.4386   -4.7215   -0.4845 H   0  0  0  0  0  0  0  0  0  0  0  0
    3.3548   -4.4555    0.9981 H   0  0  0  0  0  0  0  0  0  0  0  0
    3.0963   -7.6231   -1.0060 H   0  0  0  0  0  0  0  0  0  0  0  0
    4.6488   -7.4733   -1.8532 H   0  0  0  0  0  0  0  0  0  0  0  0
    3.3227   -6.3984   -2.2777 H   0  0  0  0  0  0  0  0  0  0  0  0
 26  1  1  0
  1  2  2  0
  2 27  1  0
  2  3  1  0
  3  4  1  0
  4 28  1  0
  4 29  1  0
  4  5  1  0
  5  6  2  0
  5  7  1  0
  7 30  1  0
  7  8  1  0
  8  9  2  0
  9 31  1  0
  9 10  1  0
 10 11  1  0
 11 32  1  0
 11 33  1  0
 11 34  1  0
 10 12  2  0
 12 35  1  0
 12 13  1  0
 13 14  1  0
 14 36  1  0
 14 37  1  0
 14 38  1  0
  8 15  1  0
 13 15  2  0
 15 39  1  0
  3 16  2  0
 16 40  1  0
 16 17  1  0
 17 41  1  0
  1 18  1  0
 17 18  2  0
 18 19  1  0
 19 20  1  0
 20 21  1  0
 21 22  2  0
 21 23  1  0
 20 24  1  0
 24 42  1  0
 24 43  1  0
 24 44  1  0
 20 25  1  0
 25 45  1  0
 25 46  1  0
 25 47  1  0
M  CHG  1  23  -1
M  END
>  <conformer_energy>  (1) 
102.01000000000001

>  <ligand_smiles>  (1) 
Cc1cc(C)cc(NC(=O)Cc2ccc(OC(C)(C)C(=O)[O-])cc2)c1

>  <ligand_conf_name>  (1) 
MOL_0_isomer_0_conf_0

>  <ligand_molecule_name>  (1) 
MOL_0_isomer_0

>  <SMILES>  (1) 
Cc1cc(C)cc(NC(=O)Cc2ccc(OC(C)(C)C(=O)[O-])cc2)c1

$$$$
1G9V_ligand_con37
     RDKit          3D

 47 48  0  0  0  0  0  0  0  0999 V2000
    5.9521   -0.8399   -3.4557 C   0  0  0  0  0  0  0  0  0  0  0  0
    5.0676   -1.6984   -2.7949 C   0  0  0  0  0  0  0  0  0  0  0  0
    3.7036   -1.3739   -2.6658 C   0  0  0  0  0  0  0  0  0  0  0  0
    2.8255   -2.3281   -1.8877 C   0  0  0  0  0  0  0  0  0  0  0  0
    1.3489   -1.9640   -1.7975 C   0  0  0  0  0  0  0  0  0  0  0  0
    0.5142   -2.5120   -2.5171 O   0  0  0  0  0  0  0  0  0  0  0  0
    1.1020   -0.9840   -0.8437 N   0  0  0  0  0  0  0  0  0  0  0  0
   -0.1447   -0.4587   -0.4492 C   0  0  0  0  0  0  0  0  0  0  0  0
   -1.3787   -0.9648   -0.8699 C   0  0  0  0  0  0  0  0  0  0  0  0
   -2.5826   -0.3965   -0.4193 C   0  0  0  0  0  0  0  0  0  0  0  0
   -3.8916   -0.9729   -0.8796 C   0  0  0  0  0  0  0  0  0  0  0  0
   -2.5410    0.7008    0.4515 C   0  0  0  0  0  0  0  0  0  0  0  0
   -1.3130    1.2377    0.8642 C   0  0  0  0  0  0  0  0  0  0  0  0
   -1.2677    2.4147    1.7969 C   0  0  0  0  0  0  0  0  0  0  0  0
   -0.1228    0.6343    0.4288 C   0  0  0  0  0  0  0  0  0  0  0  0
    3.2496   -0.1734   -3.2288 C   0  0  0  0  0  0  0  0  0  0  0  0
    4.1389    0.6910   -3.8791 C   0  0  0  0  0  0  0  0  0  0  0  0
    5.4812    0.3462   -4.0077 C   0  0  0  0  0  0  0  0  0  0  0  0
    6.3862    1.2064   -4.5520 O   0  0  0  0  0  0  0  0  0  0  0  0
    6.4610    1.2610   -6.0071 C   0  0  0  0  0  0  0  0  0  0  0  0
    7.9164    1.7896   -6.3592 C   0  0  0  0  0  0  0  0  0  0  0  0
    8.0047    3.0014   -6.7187 O   0  0  0  0  0  0  0  0  0  0  0  0
    8.8564    0.9391   -6.2518 O   0  0  0  0  0  1  0  0  0  0  0  0
    6.3280   -0.1018   -6.7088 C   0  0  0  0  0  0  0  0  0  0  0  0
    5.4124    2.2402   -6.5538 C   0  0  0  0  0  0  0  0  0  0  0  0
    7.0098   -1.0968   -3.5544 H   0  0  0  0  0  0  0  0  0  0  0  0
    5.4568   -2.6244   -2.3751 H   0  0  0  0  0  0  0  0  0  0  0  0
    3.2170   -2.3942   -0.8613 H   0  0  0  0  0  0  0  0  0  0  0  0
    2.8993   -3.3348   -2.3286 H   0  0  0  0  0  0  0  0  0  0  0  0
    1.9196   -0.5553   -0.4239 H   0  0  0  0  0  0  0  0  0  0  0  0
   -1.4344   -1.8130   -1.5474 H   0  0  0  0  0  0  0  0  0  0  0  0
   -3.9806   -0.8848   -1.9683 H   0  0  0  0  0  0  0  0  0  0  0  0
   -4.7426   -0.4496   -0.4276 H   0  0  0  0  0  0  0  0  0  0  0  0
   -3.9608   -2.0282   -0.5964 H   0  0  0  0  0  0  0  0  0  0  0  0
   -3.4696    1.1469    0.8012 H   0  0  0  0  0  0  0  0  0  0  0  0
   -2.1409    3.0602    1.6498 H   0  0  0  0  0  0  0  0  0  0  0  0
   -0.3767    3.0267    1.6098 H   0  0  0  0  0  0  0  0  0  0  0  0
   -1.2524    2.0755    2.8360 H   0  0  0  0  0  0  0  0  0  0  0  0
    0.8283    1.0423    0.7685 H   0  0  0  0  0  0  0  0  0  0  0  0
    2.2053    0.1300   -3.1662 H   0  0  0  0  0  0  0  0  0  0  0  0
    3.7808    1.6402   -4.2709 H   0  0  0  0  0  0  0  0  0  0  0  0
    6.5613   -0.0225   -7.7817 H   0  0  0  0  0  0  0  0  0  0  0  0
    5.3056   -0.5014   -6.6249 H   0  0  0  0  0  0  0  0  0  0  0  0
    6.9968   -0.8522   -6.2678 H   0  0  0  0  0  0  0  0  0  0  0  0
    5.6147    2.5171   -7.5940 H   0  0  0  0  0  0  0  0  0  0  0  0
    5.3755    3.1509   -5.9509 H   0  0  0  0  0  0  0  0  0  0  0  0
    4.4072    1.8046   -6.5324 H   0  0  0  0  0  0  0  0  0  0  0  0
 26  1  1  0
  1  2  2  0
  2 27  1  0
  2  3  1  0
  3  4  1  0
  4 28  1  0
  4 29  1  0
  4  5  1  0
  5  6  2  0
  5  7  1  0
  7 30  1  0
  7  8  1  0
  8  9  2  0
  9 31  1  0
  9 10  1  0
 10 11  1  0
 11 32  1  0
 11 33  1  0
 11 34  1  0
 10 12  2  0
 12 35  1  0
 12 13  1  0
 13 14  1  0
 14 36  1  0
 14 37  1  0
 14 38  1  0
  8 15  1  0
 13 15  2  0
 15 39  1  0
  3 16  2  0
 16 40  1  0
 16 17  1  0
 17 41  1  0
  1 18  1  0
 17 18  2  0
 18 19  1  0
 19 20  1  0
 20 21  1  0
 21 22  2  0
 21 23  1  0
 20 24  1  0
 24 42  1  0
 24 43  1  0
 24 44  1  0
 20 25  1  0
 25 45  1  0
 25 46  1  0
 25 47  1  0
M  CHG  1  23  -1
M  END
>  <conformer_energy>  (1) 
102.01000000000001

>  <ligand_smiles>  (1) 
Cc1cc(C)cc(NC(=O)Cc2ccc(OC(C)(C)C(=O)[O-])cc2)c1

>  <ligand_conf_name>  (1) 
MOL_0_isomer_0_conf_0

>  <ligand_molecule_name>  (1) 
MOL_0_isomer_0

>  <SMILES>  (1) 
Cc1cc(C)cc(NC(=O)Cc2ccc(OC(C)(C)C(=O)[O-])cc2)c1

$$$$
1G9V_ligand_con38
     RDKit          3D

 47 48  0  0  0  0  0  0  0  0999 V2000
    5.9492   -0.7863   -3.3925 C   0  0  0  0  0  0  0  0  0  0  0  0
    5.0840   -1.6527   -2.7292 C   0  0  0  0  0  0  0  0  0  0  0  0
    3.7041   -1.3744   -2.6490 C   0  0  0  0  0  0  0  0  0  0  0  0
    2.8281   -2.3586   -1.9087 C   0  0  0  0  0  0  0  0  0  0  0  0
    1.3551   -2.0048   -1.7940 C   0  0  0  0  0  0  0  0  0  0  0  0
    0.5132   -2.5893   -2.4717 O   0  0  0  0  0  0  0  0  0  0  0  0
    1.1226   -0.9953   -0.8727 N   0  0  0  0  0  0  0  0  0  0  0  0
   -0.1199   -0.4623   -0.4744 C   0  0  0  0  0  0  0  0  0  0  0  0
   -1.3524   -0.9999   -0.8433 C   0  0  0  0  0  0  0  0  0  0  0  0
   -2.5525   -0.4278   -0.3937 C   0  0  0  0  0  0  0  0  0  0  0  0
   -3.8616   -1.0488   -0.7900 C   0  0  0  0  0  0  0  0  0  0  0  0
   -2.5097    0.7089    0.4215 C   0  0  0  0  0  0  0  0  0  0  0  0
   -1.2836    1.2752    0.7855 C   0  0  0  0  0  0  0  0  0  0  0  0
   -1.2353    2.4901    1.6640 C   0  0  0  0  0  0  0  0  0  0  0  0
   -0.0959    0.6659    0.3512 C   0  0  0  0  0  0  0  0  0  0  0  0
    3.2206   -0.2031   -3.2526 C   0  0  0  0  0  0  0  0  0  0  0  0
    4.0973    0.6763   -3.8895 C   0  0  0  0  0  0  0  0  0  0  0  0
    5.4545    0.3689   -3.9819 C   0  0  0  0  0  0  0  0  0  0  0  0
    6.3426    1.2411   -4.5275 O   0  0  0  0  0  0  0  0  0  0  0  0
    6.4278    1.2779   -5.9821 C   0  0  0  0  0  0  0  0  0  0  0  0
    7.8764    1.8117   -6.3376 C   0  0  0  0  0  0  0  0  0  0  0  0
    8.8250    0.9799   -6.1867 O   0  0  0  0  0  0  0  0  0  0  0  0
    7.9522    3.0089   -6.7516 O   0  0  0  0  0  1  0  0  0  0  0  0
    6.3168   -0.0947   -6.6638 C   0  0  0  0  0  0  0  0  0  0  0  0
    5.3698    2.2373   -6.5432 C   0  0  0  0  0  0  0  0  0  0  0  0
    7.0141   -1.0050   -3.4539 H   0  0  0  0  0  0  0  0  0  0  0  0
    5.4935   -2.5519   -2.2781 H   0  0  0  0  0  0  0  0  0  0  0  0
    3.2178   -2.4778   -0.8917 H   0  0  0  0  0  0  0  0  0  0  0  0
    2.9000   -3.3350   -2.4036 H   0  0  0  0  0  0  0  0  0  0  0  0
    1.9448   -0.5417   -0.4861 H   0  0  0  0  0  0  0  0  0  0  0  0
   -1.4112   -1.8878   -1.4690 H   0  0  0  0  0  0  0  0  0  0  0  0
   -3.9845   -1.0106   -1.8769 H   0  0  0  0  0  0  0  0  0  0  0  0
   -4.7112   -0.5263   -0.3385 H   0  0  0  0  0  0  0  0  0  0  0  0
   -3.8967   -2.0926   -0.4572 H   0  0  0  0  0  0  0  0  0  0  0  0
   -3.4369    1.1580    0.7703 H   0  0  0  0  0  0  0  0  0  0  0  0
   -2.1199    3.1195    1.5148 H   0  0  0  0  0  0  0  0  0  0  0  0
   -0.3649    3.1042    1.4206 H   0  0  0  0  0  0  0  0  0  0  0  0
   -1.1795    2.1984    2.7182 H   0  0  0  0  0  0  0  0  0  0  0  0
    0.8543    1.0970    0.6533 H   0  0  0  0  0  0  0  0  0  0  0  0
    2.1638    0.0569   -3.2358 H   0  0  0  0  0  0  0  0  0  0  0  0
    3.7177    1.6045   -4.3104 H   0  0  0  0  0  0  0  0  0  0  0  0
    6.5501   -0.0290   -7.7337 H   0  0  0  0  0  0  0  0  0  0  0  0
    5.3033   -0.5067   -6.5709 H   0  0  0  0  0  0  0  0  0  0  0  0
    6.9961   -0.8264   -6.2119 H   0  0  0  0  0  0  0  0  0  0  0  0
    5.5758    2.5141   -7.5826 H   0  0  0  0  0  0  0  0  0  0  0  0
    5.3116    3.1493   -5.9418 H   0  0  0  0  0  0  0  0  0  0  0  0
    4.3678    1.7866   -6.5286 H   0  0  0  0  0  0  0  0  0  0  0  0
 26  1  1  0
  1  2  2  0
  2 27  1  0
  2  3  1  0
  3  4  1  0
  4 28  1  0
  4 29  1  0
  4  5  1  0
  5  6  2  0
  5  7  1  0
  7 30  1  0
  7  8  1  0
  8  9  2  0
  9 31  1  0
  9 10  1  0
 10 11  1  0
 11 32  1  0
 11 33  1  0
 11 34  1  0
 10 12  2  0
 12 35  1  0
 12 13  1  0
 13 14  1  0
 14 36  1  0
 14 37  1  0
 14 38  1  0
  8 15  1  0
 13 15  2  0
 15 39  1  0
  3 16  2  0
 16 40  1  0
 16 17  1  0
 17 41  1  0
  1 18  1  0
 17 18  2  0
 18 19  1  0
 19 20  1  0
 20 21  1  0
 21 22  2  0
 21 23  1  0
 20 24  1  0
 24 42  1  0
 24 43  1  0
 24 44  1  0
 20 25  1  0
 25 45  1  0
 25 46  1  0
 25 47  1  0
M  CHG  1  23  -1
M  END
>  <conformer_energy>  (1) 
102.01000000000001

>  <ligand_smiles>  (1) 
Cc1cc(C)cc(NC(=O)Cc2ccc(OC(C)(C)C(=O)[O-])cc2)c1

>  <ligand_conf_name>  (1) 
MOL_0_isomer_0_conf_0

>  <ligand_molecule_name>  (1) 
MOL_0_isomer_0

>  <SMILES>  (1) 
Cc1cc(C)cc(NC(=O)Cc2ccc(OC(C)(C)C(=O)[O-])cc2)c1

$$$$
1G9V_ligand_con39
     RDKit          3D

 47 48  0  0  0  0  0  0  0  0999 V2000
    4.6937    2.8052   -1.5862 C   0  0  0  0  0  0  0  0  0  0  0  0
    4.3852    1.4549   -1.4232 C   0  0  0  0  0  0  0  0  0  0  0  0
    4.3148    0.8965   -0.1379 C   0  0  0  0  0  0  0  0  0  0  0  0
    3.8524   -0.5309    0.0409 C   0  0  0  0  0  0  0  0  0  0  0  0
    2.3946   -0.7629   -0.3577 C   0  0  0  0  0  0  0  0  0  0  0  0
    2.0746   -1.7886   -0.9621 O   0  0  0  0  0  0  0  0  0  0  0  0
    1.5352    0.2396    0.0573 N   0  0  0  0  0  0  0  0  0  0  0  0
    0.1435    0.3360   -0.1442 C   0  0  0  0  0  0  0  0  0  0  0  0
   -0.6243   -0.6346   -0.7903 C   0  0  0  0  0  0  0  0  0  0  0  0
   -2.0098   -0.4573   -0.9596 C   0  0  0  0  0  0  0  0  0  0  0  0
   -2.8066   -1.5155   -1.6675 C   0  0  0  0  0  0  0  0  0  0  0  0
   -2.6213    0.7092   -0.4872 C   0  0  0  0  0  0  0  0  0  0  0  0
   -1.8656    1.6968    0.1554 C   0  0  0  0  0  0  0  0  0  0  0  0
   -2.5203    2.9375    0.6965 C   0  0  0  0  0  0  0  0  0  0  0  0
   -0.4878    1.4941    0.3321 C   0  0  0  0  0  0  0  0  0  0  0  0
    4.6112    1.6987    0.9732 C   0  0  0  0  0  0  0  0  0  0  0  0
    4.9181    3.0503    0.8040 C   0  0  0  0  0  0  0  0  0  0  0  0
    4.9132    3.6078   -0.4690 C   0  0  0  0  0  0  0  0  0  0  0  0
    5.1880    4.9266   -0.6780 O   0  0  0  0  0  0  0  0  0  0  0  0
    4.1343    5.8821   -0.3347 C   0  0  0  0  0  0  0  0  0  0  0  0
    4.3277    6.4124    1.1336 C   0  0  0  0  0  0  0  0  0  0  0  0
    3.7919    5.7131    2.0502 O   0  0  0  0  0  0  0  0  0  0  0  0
    4.9734    7.4972    1.2649 O   0  0  0  0  0  1  0  0  0  0  0  0
    4.3352    7.0343   -1.3327 C   0  0  0  0  0  0  0  0  0  0  0  0
    2.6968    5.3599   -0.5149 C   0  0  0  0  0  0  0  0  0  0  0  0
    4.7377    3.2475   -2.5778 H   0  0  0  0  0  0  0  0  0  0  0  0
    4.1719    0.8504   -2.3018 H   0  0  0  0  0  0  0  0  0  0  0  0
    3.9744   -0.8599    1.0815 H   0  0  0  0  0  0  0  0  0  0  0  0
    4.4879   -1.1788   -0.5788 H   0  0  0  0  0  0  0  0  0  0  0  0
    1.9585    1.0232    0.5481 H   0  0  0  0  0  0  0  0  0  0  0  0
   -0.1685   -1.5426   -1.1742 H   0  0  0  0  0  0  0  0  0  0  0  0
   -2.4073   -1.6727   -2.6771 H   0  0  0  0  0  0  0  0  0  0  0  0
   -3.8610   -1.2357   -1.7634 H   0  0  0  0  0  0  0  0  0  0  0  0
   -2.7543   -2.4548   -1.1084 H   0  0  0  0  0  0  0  0  0  0  0  0
   -3.6923    0.8516   -0.6203 H   0  0  0  0  0  0  0  0  0  0  0  0
   -3.4509    3.1536    0.1610 H   0  0  0  0  0  0  0  0  0  0  0  0
   -1.8646    3.8020    0.5586 H   0  0  0  0  0  0  0  0  0  0  0  0
   -2.7405    2.8097    1.7606 H   0  0  0  0  0  0  0  0  0  0  0  0
    0.0945    2.2617    0.8404 H   0  0  0  0  0  0  0  0  0  0  0  0
    4.5847    1.2980    1.9827 H   0  0  0  0  0  0  0  0  0  0  0  0
    5.1351    3.6731    1.6678 H   0  0  0  0  0  0  0  0  0  0  0  0
    3.7045    7.8976   -1.0927 H   0  0  0  0  0  0  0  0  0  0  0  0
    4.0913    6.7006   -2.3465 H   0  0  0  0  0  0  0  0  0  0  0  0
    5.3854    7.3605   -1.3698 H   0  0  0  0  0  0  0  0  0  0  0  0
    1.9683    6.1640   -0.3525 H   0  0  0  0  0  0  0  0  0  0  0  0
    2.4505    4.5572    0.1917 H   0  0  0  0  0  0  0  0  0  0  0  0
    2.5429    4.9569   -1.5242 H   0  0  0  0  0  0  0  0  0  0  0  0
 26  1  1  0
  1  2  2  0
  2 27  1  0
  2  3  1  0
  3  4  1  0
  4 28  1  0
  4 29  1  0
  4  5  1  0
  5  6  2  0
  5  7  1  0
  7 30  1  0
  7  8  1  0
  8  9  2  0
  9 31  1  0
  9 10  1  0
 10 11  1  0
 11 32  1  0
 11 33  1  0
 11 34  1  0
 10 12  2  0
 12 35  1  0
 12 13  1  0
 13 14  1  0
 14 36  1  0
 14 37  1  0
 14 38  1  0
  8 15  1  0
 13 15  2  0
 15 39  1  0
  3 16  2  0
 16 40  1  0
 16 17  1  0
 17 41  1  0
  1 18  1  0
 17 18  2  0
 18 19  1  0
 19 20  1  0
 20 21  1  0
 21 22  2  0
 21 23  1  0
 20 24  1  0
 24 42  1  0
 24 43  1  0
 24 44  1  0
 20 25  1  0
 25 45  1  0
 25 46  1  0
 25 47  1  0
M  CHG  1  23  -1
M  END
>  <conformer_energy>  (1) 
102.01000000000001

>  <ligand_smiles>  (1) 
Cc1cc(C)cc(NC(=O)Cc2ccc(OC(C)(C)C(=O)[O-])cc2)c1

>  <ligand_conf_name>  (1) 
MOL_0_isomer_0_conf_0

>  <ligand_molecule_name>  (1) 
MOL_0_isomer_0

>  <SMILES>  (1) 
Cc1cc(C)cc(NC(=O)Cc2ccc(OC(C)(C)C(=O)[O-])cc2)c1

$$$$
1G9V_ligand_con40
     RDKit          3D

 47 48  0  0  0  0  0  0  0  0999 V2000
    4.7739    2.2339    1.3077 C   0  0  0  0  0  0  0  0  0  0  0  0
    4.5036    1.0310    0.6535 C   0  0  0  0  0  0  0  0  0  0  0  0
    4.3744    0.9977   -0.7436 C   0  0  0  0  0  0  0  0  0  0  0  0
    4.0041   -0.2867   -1.4457 C   0  0  0  0  0  0  0  0  0  0  0  0
    2.5148   -0.5591   -1.6567 C   0  0  0  0  0  0  0  0  0  0  0  0
    2.1819   -1.5835   -2.2550 O   0  0  0  0  0  0  0  0  0  0  0  0
    1.6459    0.3848   -1.1431 N   0  0  0  0  0  0  0  0  0  0  0  0
    0.2362    0.3902   -1.1890 C   0  0  0  0  0  0  0  0  0  0  0  0
   -0.5354   -0.6120   -1.7791 C   0  0  0  0  0  0  0  0  0  0  0  0
   -1.9372   -0.5313   -1.7848 C   0  0  0  0  0  0  0  0  0  0  0  0
   -2.7497   -1.6358   -2.3942 C   0  0  0  0  0  0  0  0  0  0  0  0
   -2.5660    0.5584   -1.1715 C   0  0  0  0  0  0  0  0  0  0  0  0
   -1.8097    1.5804   -0.5889 C   0  0  0  0  0  0  0  0  0  0  0  0
   -2.4834    2.7381    0.0860 C   0  0  0  0  0  0  0  0  0  0  0  0
   -0.4115    1.4811   -0.5934 C   0  0  0  0  0  0  0  0  0  0  0  0
    4.5153    2.1880   -1.4732 C   0  0  0  0  0  0  0  0  0  0  0  0
    4.7840    3.3875   -0.8137 C   0  0  0  0  0  0  0  0  0  0  0  0
    4.9415    3.4015    0.5699 C   0  0  0  0  0  0  0  0  0  0  0  0
    5.1241    4.5959    1.2002 O   0  0  0  0  0  0  0  0  0  0  0  0
    6.4963    4.9697    1.5082 C   0  0  0  0  0  0  0  0  0  0  0  0
    6.4811    6.5215    1.8146 C   0  0  0  0  0  0  0  0  0  0  0  0
    6.3739    7.2829    0.8048 O   0  0  0  0  0  0  0  0  0  0  0  0
    6.5882    6.8547    3.0330 O   0  0  0  0  0  1  0  0  0  0  0  0
    6.9985    4.2075    2.7403 C   0  0  0  0  0  0  0  0  0  0  0  0
    7.4777    4.7893    0.3388 C   0  0  0  0  0  0  0  0  0  0  0  0
    4.8412    2.2671    2.3914 H   0  0  0  0  0  0  0  0  0  0  0  0
    4.3762    0.1273    1.2454 H   0  0  0  0  0  0  0  0  0  0  0  0
    4.4163   -1.1354   -0.8856 H   0  0  0  0  0  0  0  0  0  0  0  0
    4.4843   -0.3046   -2.4327 H   0  0  0  0  0  0  0  0  0  0  0  0
    2.0594    1.1845   -0.6752 H   0  0  0  0  0  0  0  0  0  0  0  0
   -0.0695   -1.4751   -2.2436 H   0  0  0  0  0  0  0  0  0  0  0  0
   -2.2459   -2.0476   -3.2758 H   0  0  0  0  0  0  0  0  0  0  0  0
   -3.7281   -1.2683   -2.7229 H   0  0  0  0  0  0  0  0  0  0  0  0
   -2.9020   -2.4370   -1.6638 H   0  0  0  0  0  0  0  0  0  0  0  0
   -3.6525    0.6139   -1.1521 H   0  0  0  0  0  0  0  0  0  0  0  0
   -3.4517    2.9513   -0.3780 H   0  0  0  0  0  0  0  0  0  0  0  0
   -1.8768    3.6457    0.0010 H   0  0  0  0  0  0  0  0  0  0  0  0
   -2.6415    2.5146    1.1451 H   0  0  0  0  0  0  0  0  0  0  0  0
    0.1725    2.2709   -0.1237 H   0  0  0  0  0  0  0  0  0  0  0  0
    4.3995    2.1967   -2.5546 H   0  0  0  0  0  0  0  0  0  0  0  0
    4.8706    4.3185   -1.3695 H   0  0  0  0  0  0  0  0  0  0  0  0
    7.9450    4.6150    3.1132 H   0  0  0  0  0  0  0  0  0  0  0  0
    7.1706    3.1501    2.5137 H   0  0  0  0  0  0  0  0  0  0  0  0
    6.2627    4.2406    3.5518 H   0  0  0  0  0  0  0  0  0  0  0  0
    8.4504    5.2442    0.5603 H   0  0  0  0  0  0  0  0  0  0  0  0
    7.0976    5.2370   -0.5860 H   0  0  0  0  0  0  0  0  0  0  0  0
    7.6544    3.7286    0.1264 H   0  0  0  0  0  0  0  0  0  0  0  0
 26  1  1  0
  1  2  2  0
  2 27  1  0
  2  3  1  0
  3  4  1  0
  4 28  1  0
  4 29  1  0
  4  5  1  0
  5  6  2  0
  5  7  1  0
  7 30  1  0
  7  8  1  0
  8  9  2  0
  9 31  1  0
  9 10  1  0
 10 11  1  0
 11 32  1  0
 11 33  1  0
 11 34  1  0
 10 12  2  0
 12 35  1  0
 12 13  1  0
 13 14  1  0
 14 36  1  0
 14 37  1  0
 14 38  1  0
  8 15  1  0
 13 15  2  0
 15 39  1  0
  3 16  2  0
 16 40  1  0
 16 17  1  0
 17 41  1  0
  1 18  1  0
 17 18  2  0
 18 19  1  0
 19 20  1  0
 20 21  1  0
 21 22  2  0
 21 23  1  0
 20 24  1  0
 24 42  1  0
 24 43  1  0
 24 44  1  0
 20 25  1  0
 25 45  1  0
 25 46  1  0
 25 47  1  0
M  CHG  1  23  -1
M  END
>  <conformer_energy>  (1) 
102.01000000000001

>  <ligand_smiles>  (1) 
Cc1cc(C)cc(NC(=O)Cc2ccc(OC(C)(C)C(=O)[O-])cc2)c1

>  <ligand_conf_name>  (1) 
MOL_0_isomer_0_conf_0

>  <ligand_molecule_name>  (1) 
MOL_0_isomer_0

>  <SMILES>  (1) 
Cc1cc(C)cc(NC(=O)Cc2ccc(OC(C)(C)C(=O)[O-])cc2)c1

$$$$
1G9V_ligand_con41
     RDKit          3D

 47 48  0  0  0  0  0  0  0  0999 V2000
    4.7435    2.7248   -1.4127 C   0  0  0  0  0  0  0  0  0  0  0  0
    4.3794    1.3833   -1.3054 C   0  0  0  0  0  0  0  0  0  0  0  0
    4.2443    0.7878   -0.0427 C   0  0  0  0  0  0  0  0  0  0  0  0
    3.7262   -0.6231    0.0839 C   0  0  0  0  0  0  0  0  0  0  0  0
    2.2653   -0.8073   -0.3275 C   0  0  0  0  0  0  0  0  0  0  0  0
    1.9018   -1.8794   -0.8086 O   0  0  0  0  0  0  0  0  0  0  0  0
    1.4474    0.2679   -0.0295 N   0  0  0  0  0  0  0  0  0  0  0  0
    0.0792    0.4266   -0.3162 C   0  0  0  0  0  0  0  0  0  0  0  0
   -0.6972   -0.5223   -0.9827 C   0  0  0  0  0  0  0  0  0  0  0  0
   -2.0597   -0.2909   -1.2276 C   0  0  0  0  0  0  0  0  0  0  0  0
   -2.8676   -1.3333   -1.9410 C   0  0  0  0  0  0  0  0  0  0  0  0
   -2.6397    0.9086   -0.8068 C   0  0  0  0  0  0  0  0  0  0  0  0
   -1.8740    1.8740   -0.1434 C   0  0  0  0  0  0  0  0  0  0  0  0
   -2.4958    3.1476    0.3486 C   0  0  0  0  0  0  0  0  0  0  0  0
   -0.5184    1.6221    0.1012 C   0  0  0  0  0  0  0  0  0  0  0  0
    4.5313    1.5422    1.1030 C   0  0  0  0  0  0  0  0  0  0  0  0
    4.8974    2.8828    0.9894 C   0  0  0  0  0  0  0  0  0  0  0  0
    4.9589    3.4807   -0.2633 C   0  0  0  0  0  0  0  0  0  0  0  0
    5.2899    4.7924   -0.4130 O   0  0  0  0  0  0  0  0  0  0  0  0
    4.2519    5.7735   -0.0993 C   0  0  0  0  0  0  0  0  0  0  0  0
    4.4583    6.3470    1.3532 C   0  0  0  0  0  0  0  0  0  0  0  0
    4.9906    7.4928    1.4423 O   0  0  0  0  0  0  0  0  0  0  0  0
    4.0369    5.6164    2.3021 O   0  0  0  0  0  1  0  0  0  0  0  0
    4.4646    6.8823   -1.1376 C   0  0  0  0  0  0  0  0  0  0  0  0
    2.8008    5.2795   -0.2298 C   0  0  0  0  0  0  0  0  0  0  0  0
    4.8316    3.1956   -2.3871 H   0  0  0  0  0  0  0  0  0  0  0  0
    4.1732    0.8174   -2.2110 H   0  0  0  0  0  0  0  0  0  0  0  0
    3.8226   -0.9775    1.1162 H   0  0  0  0  0  0  0  0  0  0  0  0
    4.3471   -1.2781   -0.5386 H   0  0  0  0  0  0  0  0  0  0  0  0
    1.8881    1.0572    0.4375 H   0  0  0  0  0  0  0  0  0  0  0  0
   -0.2659   -1.4569   -1.3201 H   0  0  0  0  0  0  0  0  0  0  0  0
   -2.5407   -1.4102   -2.9822 H   0  0  0  0  0  0  0  0  0  0  0  0
   -3.9350   -1.0921   -1.9295 H   0  0  0  0  0  0  0  0  0  0  0  0
   -2.7422   -2.3067   -1.4530 H   0  0  0  0  0  0  0  0  0  0  0  0
   -3.6949    1.0888   -0.9877 H   0  0  0  0  0  0  0  0  0  0  0  0
   -3.4711    3.3228   -0.1185 H   0  0  0  0  0  0  0  0  0  0  0  0
   -1.8594    4.0057    0.1074 H   0  0  0  0  0  0  0  0  0  0  0  0
   -2.6347    3.1013    1.4345 H   0  0  0  0  0  0  0  0  0  0  0  0
    0.0691    2.3695    0.6328 H   0  0  0  0  0  0  0  0  0  0  0  0
    4.4503    1.1107    2.0972 H   0  0  0  0  0  0  0  0  0  0  0  0
    5.1082    3.4667    1.8820 H   0  0  0  0  0  0  0  0  0  0  0  0
    3.8147    7.7463   -0.9591 H   0  0  0  0  0  0  0  0  0  0  0  0
    4.2611    6.5015   -2.1459 H   0  0  0  0  0  0  0  0  0  0  0  0
    5.5084    7.2273   -1.1456 H   0  0  0  0  0  0  0  0  0  0  0  0
    2.0929    6.1058   -0.0890 H   0  0  0  0  0  0  0  0  0  0  0  0
    2.5492    4.5148    0.5163 H   0  0  0  0  0  0  0  0  0  0  0  0
    2.6147    4.8355   -1.2133 H   0  0  0  0  0  0  0  0  0  0  0  0
 26  1  1  0
  1  2  2  0
  2 27  1  0
  2  3  1  0
  3  4  1  0
  4 28  1  0
  4 29  1  0
  4  5  1  0
  5  6  2  0
  5  7  1  0
  7 30  1  0
  7  8  1  0
  8  9  2  0
  9 31  1  0
  9 10  1  0
 10 11  1  0
 11 32  1  0
 11 33  1  0
 11 34  1  0
 10 12  2  0
 12 35  1  0
 12 13  1  0
 13 14  1  0
 14 36  1  0
 14 37  1  0
 14 38  1  0
  8 15  1  0
 13 15  2  0
 15 39  1  0
  3 16  2  0
 16 40  1  0
 16 17  1  0
 17 41  1  0
  1 18  1  0
 17 18  2  0
 18 19  1  0
 19 20  1  0
 20 21  1  0
 21 22  2  0
 21 23  1  0
 20 24  1  0
 24 42  1  0
 24 43  1  0
 24 44  1  0
 20 25  1  0
 25 45  1  0
 25 46  1  0
 25 47  1  0
M  CHG  1  23  -1
M  END
>  <conformer_energy>  (1) 
102.01000000000001

>  <ligand_smiles>  (1) 
Cc1cc(C)cc(NC(=O)Cc2ccc(OC(C)(C)C(=O)[O-])cc2)c1

>  <ligand_conf_name>  (1) 
MOL_0_isomer_0_conf_0

>  <ligand_molecule_name>  (1) 
MOL_0_isomer_0

>  <SMILES>  (1) 
Cc1cc(C)cc(NC(=O)Cc2ccc(OC(C)(C)C(=O)[O-])cc2)c1

$$$$
1G9V_ligand_con42
     RDKit          3D

 47 48  0  0  0  0  0  0  0  0999 V2000
    4.7443    2.2140    1.3349 C   0  0  0  0  0  0  0  0  0  0  0  0
    4.4867    1.0219    0.6561 C   0  0  0  0  0  0  0  0  0  0  0  0
    4.3850    1.0117   -0.7434 C   0  0  0  0  0  0  0  0  0  0  0  0
    4.0279   -0.2611   -1.4731 C   0  0  0  0  0  0  0  0  0  0  0  0
    2.5410   -0.5520   -1.6760 C   0  0  0  0  0  0  0  0  0  0  0  0
    2.2162   -1.5951   -2.2463 O   0  0  0  0  0  0  0  0  0  0  0  0
    1.6649    0.4042   -1.1981 N   0  0  0  0  0  0  0  0  0  0  0  0
    0.2555    0.4019   -1.2536 C   0  0  0  0  0  0  0  0  0  0  0  0
   -0.5083   -0.6178   -1.8229 C   0  0  0  0  0  0  0  0  0  0  0  0
   -1.9100   -0.5409   -1.8424 C   0  0  0  0  0  0  0  0  0  0  0  0
   -2.7150   -1.6623   -2.4310 C   0  0  0  0  0  0  0  0  0  0  0  0
   -2.5469    0.5630   -1.2632 C   0  0  0  0  0  0  0  0  0  0  0  0
   -1.7986    1.6029   -0.7032 C   0  0  0  0  0  0  0  0  0  0  0  0
   -2.4806    2.7779   -0.0679 C   0  0  0  0  0  0  0  0  0  0  0  0
   -0.4002    1.5070   -0.6930 C   0  0  0  0  0  0  0  0  0  0  0  0
    4.5407    2.2138   -1.4505 C   0  0  0  0  0  0  0  0  0  0  0  0
    4.7955    3.4022   -0.7661 C   0  0  0  0  0  0  0  0  0  0  0  0
    4.9256    3.3933    0.6202 C   0  0  0  0  0  0  0  0  0  0  0  0
    5.0951    4.5772    1.2735 O   0  0  0  0  0  0  0  0  0  0  0  0
    6.4608    4.9475    1.6115 C   0  0  0  0  0  0  0  0  0  0  0  0
    6.4481    6.5018    1.9009 C   0  0  0  0  0  0  0  0  0  0  0  0
    6.5803    6.8490    3.1127 O   0  0  0  0  0  0  0  0  0  0  0  0
    6.3188    7.2515    0.8846 O   0  0  0  0  0  1  0  0  0  0  0  0
    6.9248    4.1896    2.8606 C   0  0  0  0  0  0  0  0  0  0  0  0
    7.4735    4.7571    0.4713 C   0  0  0  0  0  0  0  0  0  0  0  0
    4.7906    2.2286    2.4201 H   0  0  0  0  0  0  0  0  0  0  0  0
    4.3473    0.1087    1.2305 H   0  0  0  0  0  0  0  0  0  0  0  0
    4.4592   -1.1149   -0.9352 H   0  0  0  0  0  0  0  0  0  0  0  0
    4.4979   -0.2501   -2.4644 H   0  0  0  0  0  0  0  0  0  0  0  0
    2.0718    1.2178   -0.7488 H   0  0  0  0  0  0  0  0  0  0  0  0
   -0.0361   -1.4916   -2.2600 H   0  0  0  0  0  0  0  0  0  0  0  0
   -2.2005   -2.0975   -3.2938 H   0  0  0  0  0  0  0  0  0  0  0  0
   -3.6884   -1.3038   -2.7825 H   0  0  0  0  0  0  0  0  0  0  0  0
   -2.8771   -2.4429   -1.6817 H   0  0  0  0  0  0  0  0  0  0  0  0
   -3.6338    0.6157   -1.2536 H   0  0  0  0  0  0  0  0  0  0  0  0
   -3.4444    2.9768   -0.5479 H   0  0  0  0  0  0  0  0  0  0  0  0
   -1.8741    3.6831   -0.1729 H   0  0  0  0  0  0  0  0  0  0  0  0
   -2.6484    2.5843    0.9953 H   0  0  0  0  0  0  0  0  0  0  0  0
    0.1779    2.3107   -0.2395 H   0  0  0  0  0  0  0  0  0  0  0  0
    4.4466    2.2398   -2.5338 H   0  0  0  0  0  0  0  0  0  0  0  0
    4.8937    4.3426   -1.3040 H   0  0  0  0  0  0  0  0  0  0  0  0
    7.8665    4.5884    3.2540 H   0  0  0  0  0  0  0  0  0  0  0  0
    7.0900    3.1283    2.6461 H   0  0  0  0  0  0  0  0  0  0  0  0
    6.1693    4.2382    3.6535 H   0  0  0  0  0  0  0  0  0  0  0  0
    8.4415    5.2083    0.7184 H   0  0  0  0  0  0  0  0  0  0  0  0
    7.1230    5.2032   -0.4658 H   0  0  0  0  0  0  0  0  0  0  0  0
    7.6512    3.6949    0.2682 H   0  0  0  0  0  0  0  0  0  0  0  0
 26  1  1  0
  1  2  2  0
  2 27  1  0
  2  3  1  0
  3  4  1  0
  4 28  1  0
  4 29  1  0
  4  5  1  0
  5  6  2  0
  5  7  1  0
  7 30  1  0
  7  8  1  0
  8  9  2  0
  9 31  1  0
  9 10  1  0
 10 11  1  0
 11 32  1  0
 11 33  1  0
 11 34  1  0
 10 12  2  0
 12 35  1  0
 12 13  1  0
 13 14  1  0
 14 36  1  0
 14 37  1  0
 14 38  1  0
  8 15  1  0
 13 15  2  0
 15 39  1  0
  3 16  2  0
 16 40  1  0
 16 17  1  0
 17 41  1  0
  1 18  1  0
 17 18  2  0
 18 19  1  0
 19 20  1  0
 20 21  1  0
 21 22  2  0
 21 23  1  0
 20 24  1  0
 24 42  1  0
 24 43  1  0
 24 44  1  0
 20 25  1  0
 25 45  1  0
 25 46  1  0
 25 47  1  0
M  CHG  1  23  -1
M  END
>  <conformer_energy>  (1) 
102.01000000000001

>  <ligand_smiles>  (1) 
Cc1cc(C)cc(NC(=O)Cc2ccc(OC(C)(C)C(=O)[O-])cc2)c1

>  <ligand_conf_name>  (1) 
MOL_0_isomer_0_conf_0

>  <ligand_molecule_name>  (1) 
MOL_0_isomer_0

>  <SMILES>  (1) 
Cc1cc(C)cc(NC(=O)Cc2ccc(OC(C)(C)C(=O)[O-])cc2)c1

$$$$
