1G9V - prepared_ligand2
                    3D
 Schrodinger Suite 2023-2.
 47 48  0  0  1  0            999 V2000
    7.7770   23.0073   35.5470 C   0  0  0  0  0  0
    8.3506   22.3354   36.4377 O   0  5  0  0  0  0
    7.4528   24.2086   35.7052 O   0  0  0  0  0  0
    7.4686   22.3180   34.1671 C   0  0  0  0  0  0
    8.7107   22.4866   33.2647 C   0  0  0  0  0  0
    6.2369   22.9199   33.4276 C   0  0  0  0  0  0
    7.3335   20.8850   34.3132 O   0  0  0  0  0  0
    6.2764   20.2520   34.9503 C   0  0  0  0  0  0
    5.3478   20.8784   35.7947 C   0  0  0  0  0  0
    4.3404   20.1396   36.4058 C   0  0  0  0  0  0
    4.2435   18.7674   36.1790 C   0  0  0  0  0  0
    6.1784   18.8752   34.7412 C   0  0  0  0  0  0
    5.1655   18.1342   35.3434 C   0  0  0  0  0  0
    3.1534   17.9578   36.8745 C   0  0  0  0  0  0
    3.6522   17.2066   38.1188 C   0  0  0  0  0  0
    4.6531   17.5894   38.7296 O   0  0  0  0  0  0
    2.8889   16.1652   38.5037 N   0  0  0  0  0  0
    3.1663   15.2368   39.5159 C   0  0  0  0  0  0
    4.4623   14.7678   39.7786 C   0  0  0  0  0  0
    4.6701   13.7694   40.7316 C   0  0  0  0  0  0
    3.5773   13.2296   41.4135 C   0  0  0  0  0  0
    2.0839   14.7069   40.2222 C   0  0  0  0  0  0
    2.2868   13.7109   41.1807 C   0  0  0  0  0  0
    6.0764   13.2706   41.0094 C   0  0  0  0  0  0
    1.1095   13.1263   41.9379 C   0  0  0  0  0  0
    8.5478   22.0468   32.2799 H   0  0  0  0  0  0
    8.9549   23.5380   33.1120 H   0  0  0  0  0  0
    9.5913   22.0029   33.6912 H   0  0  0  0  0  0
    6.0542   22.3967   32.4895 H   0  0  0  0  0  0
    5.3226   22.8627   34.0113 H   0  0  0  0  0  0
    6.3895   23.9696   33.1746 H   0  0  0  0  0  0
    5.3938   21.9328   36.0094 H   0  0  0  0  0  0
    3.6389   20.6347   37.0603 H   0  0  0  0  0  0
    6.8926   18.3762   34.1024 H   0  0  0  0  0  0
    5.1049   17.0695   35.1682 H   0  0  0  0  0  0
    2.7346   17.2456   36.1613 H   0  0  0  0  0  0
    2.3382   18.6172   37.1771 H   0  0  0  0  0  0
    2.0000   16.0405   38.0370 H   0  0  0  0  0  0
    5.3065   15.1492   39.2238 H   0  0  0  0  0  0
    3.7300   12.4278   42.1193 H   0  0  0  0  0  0
    1.0814   15.0568   40.0184 H   0  0  0  0  0  0
    6.0973   12.5027   41.7839 H   0  0  0  0  0  0
    6.5173   12.8590   40.1009 H   0  0  0  0  0  0
    6.7085   14.0985   41.3330 H   0  0  0  0  0  0
    0.1928   13.1962   41.3525 H   0  0  0  0  0  0
    1.2677   12.0673   42.1441 H   0  0  0  0  0  0
    0.9641   13.6479   42.8842 H   0  0  0  0  0  0
  1  2  1  0  0  0
  1  3  2  0  0  0
  1  4  1  0  0  0
  4  5  1  0  0  0
  4  6  1  0  0  0
  4  7  1  0  0  0
  5 26  1  0  0  0
  5 27  1  0  0  0
  5 28  1  0  0  0
  6 29  1  0  0  0
  6 30  1  0  0  0
  6 31  1  0  0  0
  7  8  1  0  0  0
  8  9  2  0  0  0
  8 12  1  0  0  0
  9 10  1  0  0  0
  9 32  1  0  0  0
 10 11  2  0  0  0
 10 33  1  0  0  0
 11 13  1  0  0  0
 11 14  1  0  0  0
 12 13  2  0  0  0
 12 34  1  0  0  0
 13 35  1  0  0  0
 14 15  1  0  0  0
 14 36  1  0  0  0
 14 37  1  0  0  0
 15 16  2  0  0  0
 15 17  1  0  0  0
 17 18  1  0  0  0
 17 38  1  0  0  0
 18 19  2  0  0  0
 18 22  1  0  0  0
 19 20  1  0  0  0
 19 39  1  0  0  0
 20 21  2  0  0  0
 20 24  1  0  0  0
 21 23  1  0  0  0
 21 40  1  0  0  0
 22 23  2  0  0  0
 22 41  1  0  0  0
 23 25  1  0  0  0
 24 42  1  0  0  0
 24 43  1  0  0  0
 24 44  1  0  0  0
 25 45  1  0  0  0
 25 46  1  0  0  0
 25 47  1  0  0  0
M  CHG  1   2  -1
M  END
>  <test prop>
hello world

$$$$
