REMARK  Name = CHEMBL91903
REMARK  10 active torsions:
REMARK  status: ('A' for Active; 'I' for Inactive)
REMARK    1  A    between atoms: C_1  and  C_5
REMARK    2  A    between atoms: N_3  and  C_16
REMARK    3  A    between atoms: C_5  and  C_6
REMARK    4  A    between atoms: C_5  and  C_10
REMARK    5  A    between atoms: C_6  and  C_7
REMARK    6  A    between atoms: C_7  and  C_9
REMARK    7  A    between atoms: C_10  and  N_11
REMARK    8  A    between atoms: N_11  and  O_14
REMARK    9  A    between atoms: C_16  and  C_17
REMARK   10  A    between atoms: C_16  and  C_25
REMARK                            x       y       z     vdW  Elec       q    Type
REMARK                         _______ _______ _______ _____ _____    ______ ____
ROOT
ATOM      1  C   UNL A   1       0.937  -3.560  -3.204  0.00  0.00    +0.568 C 
ATOM      2  O   UNL A   1       0.352  -3.902  -2.198  0.00  0.00    -0.493 OA
ATOM      3  N   UNL A   1       1.645  -4.463  -3.911  0.00  0.00    -0.677 N 
ATOM      4  H   UNL A   1       2.113  -4.190  -4.715  0.00  0.00    +0.347 HD
ENDROOT
BRANCH   1   5
ATOM      5  C   UNL A   1       0.873  -2.126  -3.663  0.00  0.00    -0.095 C 
BRANCH   5   6
ATOM      6  C   UNL A   1       0.013  -1.317  -2.690  0.00  0.00    +0.099 C 
BRANCH   6   7
ATOM      7  C   UNL A   1       0.698  -1.266  -1.323  0.00  0.00    +0.048 C 
BRANCH   7   9
ATOM      8  C   UNL A   1       0.579  -0.317   0.985  0.00  0.00    +0.059 C 
ATOM      9  C   UNL A   1      -0.107  -0.368  -0.382  0.00  0.00    +0.038 C 
ENDBRANCH   7   9
ENDBRANCH   6   7
ENDBRANCH   5   6
BRANCH   5  10
ATOM     10  C   UNL A   1       0.257  -2.066  -5.061  0.00  0.00    +0.177 C 
BRANCH  10  11
ATOM     11  N   UNL A   1       0.240  -0.677  -5.528  0.00  0.00    -0.244 N 
ATOM     12  C   UNL A   1       1.375  -0.101  -5.969  0.00  0.00    +0.476 C 
ATOM     13  O   UNL A   1       1.362   1.049  -6.355  0.00  0.00    -0.462 OA
BRANCH  11  14
ATOM     14  O   UNL A   1      -0.969   0.060  -5.515  0.00  0.00    -0.457 OA
ATOM     15  H   UNL A   1      -0.881   0.966  -5.841  0.00  0.00    +0.363 HD
ENDBRANCH  11  14
ENDBRANCH  10  11
ENDBRANCH   5  10
ENDBRANCH   1   5
BRANCH   3  16
ATOM     16  C   UNL A   1       1.707  -5.857  -3.465  0.00  0.00    +0.171 C 
BRANCH  16  17
ATOM     17  C   UNL A   1       2.965  -6.498  -3.992  0.00  0.00    +0.484 C 
ATOM     18  O   UNL A   1       3.371  -6.216  -5.099  0.00  0.00    -0.479 OA
ATOM     19  N   UNL A   1       3.639  -7.385  -3.233  0.00  0.00    -0.464 N 
ATOM     20  C   UNL A   1       3.110  -7.824  -1.931  0.00  0.00    +0.157 C 
ATOM     21  C   UNL A   1       3.133  -9.356  -1.893  0.00  0.00    +0.221 C 
ATOM     22  O   UNL A   1       4.442  -9.816  -2.234  0.00  0.00    -0.457 OA
ATOM     23  C   UNL A   1       4.859  -9.469  -3.557  0.00  0.00    +0.224 C 
ATOM     24  C   UNL A   1       4.922  -7.947  -3.683  0.00  0.00    +0.207 C 
ENDBRANCH  16  17
BRANCH  16  25
ATOM     25  C   UNL A   1       0.488  -6.617  -3.993  0.00  0.00    -0.026 C 
ATOM     26  C   UNL A   1       0.467  -6.547  -5.521  0.00  0.00    +0.078 C 
ATOM     27  C   UNL A   1       0.567  -8.079  -3.550  0.00  0.00    +0.037 C 
ATOM     28  C   UNL A   1      -0.788  -5.984  -3.436  0.00  0.00    +0.099 C 
ENDBRANCH  16  25
ENDBRANCH   3  16
TORSDOF 10
