REMARK  Name = CHEMBL417870
REMARK  12 active torsions:
REMARK  status: ('A' for Active; 'I' for Inactive)
REMARK    1  A    between atoms: C_1  and  C_5
REMARK    2  A    between atoms: N_3  and  C_19
REMARK    3  A    between atoms: C_5  and  N_6
REMARK    4  A    between atoms: C_5  and  C_14
REMARK    5  A    between atoms: N_9  and  O_12
REMARK    6  A    between atoms: C_14  and  C_15
REMARK    7  A    between atoms: C_15  and  C_16
REMARK    8  A    between atoms: C_16  and  C_18
REMARK    9  A    between atoms: C_19  and  C_20
REMARK   10  A    between atoms: C_19  and  C_30
REMARK   11  A    between atoms: CA_26  and  C_27
REMARK   12  A    between atoms: C_27  and  O_28
REMARK                            x       y       z     vdW  Elec       q    Type
REMARK                         _______ _______ _______ _____ _____    ______ ____
ROOT
ATOM      1  C   UNK A   1      -4.250  -4.409   0.280  0.00  0.00    +0.560 C 
ATOM      2  O   UNK A   1      -4.774  -4.759  -0.756  0.00  0.00    -0.457 OA
ATOM      3  N   UNK A   1      -4.883  -4.601   1.454  0.00  0.00    -0.676 N 
ATOM      4  H   UNK A   1      -4.464  -4.321   2.283  0.00  0.00    +0.343 HD
ENDROOT
BRANCH   1   5
ATOM      5  C   UNK A   1      -2.890  -3.760   0.255  0.00  0.00    +0.135 C 
BRANCH   5   6
ATOM      6  N   UNK A   1      -2.217  -4.083  -1.006  0.00  0.00    -0.731 N 
ATOM      7  C   UNK     1      -2.773  -3.720  -2.179  0.00  0.00    +0.831 C 
ATOM      8  O   UNK     1      -3.833  -3.124  -2.190  0.00  0.00    -0.472 OA
ATOM      9  N   UNK     1      -2.155  -4.018  -3.338  0.00  0.00    -0.494 N 
ATOM     10  H   UNK A   1      -1.372  -4.559  -0.996  0.00  0.00    +0.338 HD
ATOM     11  H   UNK     1      -1.309  -4.493  -3.329  0.00  0.00    +0.302 HD
BRANCH   9  12
ATOM     12  O   UNK     1      -2.739  -3.636  -4.571  0.00  0.00    -0.427 OA
ATOM     13  H   UNK     1      -2.222  -3.893  -5.347  0.00  0.00    +0.334 HD
ENDBRANCH   9  12
ENDBRANCH   5   6
BRANCH   5  14
ATOM     14  C   UNK A   1      -3.047  -2.243   0.374  0.00  0.00    +0.039 C 
BRANCH  14  15
ATOM     15  C   UNK A   1      -1.666  -1.593   0.475  0.00  0.00    +0.029 C 
BRANCH  15  16
ATOM     16  C   UNK A   1      -1.823  -0.076   0.594  0.00  0.00    +0.024 C 
BRANCH  16  18
ATOM     17  C   UNK A   1      -0.599   2.091   0.814  0.00  0.00    +0.034 C 
ATOM     18  C   UNK A   1      -0.441   0.574   0.694  0.00  0.00    +0.017 C 
ENDBRANCH  16  18
ENDBRANCH  15  16
ENDBRANCH  14  15
ENDBRANCH   5  14
ENDBRANCH   1   5
BRANCH   3  19
ATOM     19  C   UNK A   1      -6.205  -5.233   1.478  0.00  0.00    +0.173 C 
BRANCH  19  20
ATOM     20  C   UNK A   1      -6.428  -5.880   2.821  0.00  0.00    +0.488 C 
ATOM     21  O   UNK A   1      -5.838  -5.469   3.797  0.00  0.00    -0.487 OA
ATOM     22  N   PRO A   2      -7.283  -6.916   2.936  0.00  0.00    -0.461 N 
ATOM     23  CD  PRO A   2      -7.986  -7.577   1.822  0.00  0.00    +0.179 C 
ATOM     24  CG  PRO A   2      -9.240  -8.217   2.468  0.00  0.00    +0.017 C 
ATOM     25  CB  PRO A   2      -8.681  -8.682   3.839  0.00  0.00    +0.033 C 
ATOM     26  CA  PRO A   2      -7.663  -7.577   4.192  0.00  0.00    +0.169 C 
BRANCH  26  27
ATOM     27  C   PRO A   2      -6.428  -8.195   4.850  0.00  0.00    +0.221 C 
BRANCH  27  28
ATOM     28  O   PRO A   2      -5.917  -9.239   4.019  0.00  0.00    -0.549 OA
ATOM     29  H   PRO A   2      -5.131  -9.676   4.375  0.00  0.00    +0.327 HD
ENDBRANCH  27  28
ENDBRANCH  26  27
ENDBRANCH  19  20
BRANCH  19  30
ATOM     30  C   UNK A   1      -7.281  -4.172   1.238  0.00  0.00    -0.013 C 
ATOM     31  C   UNK A   1      -7.111  -3.035   2.248  0.00  0.00    +0.060 C 
ATOM     32  C   UNK A   1      -7.144  -3.618  -0.181  0.00  0.00    +0.113 C 
ENDBRANCH  19  30
ENDBRANCH   3  19
TORSDOF 12
